Beginning WRF with 4 cycles in Incrementally mode

WRF with 1 CPU(s) started
Start: Mon Sep  9 12:00:14 PM UTC 2024
 starting wrf task            0  of            1
Finish: Mon Sep  9 12:24:11 PM UTC 2024

rsl.error.0000 result:
Timing for main: time 2024-08-25_05:59:30 on domain   2:    1.24884 elapsed seconds
Timing for main: time 2024-08-25_06:00:00 on domain   2:    1.25205 elapsed seconds
 mediation_integrate.G        1242 DATASET=HISTORY
 mediation_integrate.G        1243  grid%id            2  grid%oid            2
Timing for Writing wrfout_d02_2024-08-25_06:00:00 for domain        2:    0.87260 elapsed seconds
Timing for main: time 2024-08-25_06:00:00 on domain   1:    5.98064 elapsed seconds
 mediation_integrate.G        1242 DATASET=HISTORY
 mediation_integrate.G        1243  grid%id            1  grid%oid            2
Timing for Writing wrfout_d01_2024-08-25_06:00:00 for domain        1:    0.46086 elapsed seconds
d01 2024-08-25_06:00:00 wrf: SUCCESS COMPLETE WRF

rsl.out.0000 result:
Timing for main: time 2024-08-25_05:58:00 on domain   2:    1.24534 elapsed seconds
Timing for main: time 2024-08-25_05:58:30 on domain   2:    1.25902 elapsed seconds
Timing for main: time 2024-08-25_05:58:30 on domain   1:    5.12305 elapsed seconds
Timing for main: time 2024-08-25_05:59:00 on domain   2:    1.22757 elapsed seconds
Timing for main: time 2024-08-25_05:59:30 on domain   2:    1.24884 elapsed seconds
Timing for main: time 2024-08-25_06:00:00 on domain   2:    1.25205 elapsed seconds
Timing for Writing wrfout_d02_2024-08-25_06:00:00 for domain        2:    0.87260 elapsed seconds
Timing for main: time 2024-08-25_06:00:00 on domain   1:    5.98064 elapsed seconds
Timing for Writing wrfout_d01_2024-08-25_06:00:00 for domain        1:    0.46086 elapsed seconds
d01 2024-08-25_06:00:00 wrf: SUCCESS COMPLETE WRF

Present wrfout files:
 6508 -rw-r--r-- 1 swe swe  6663034 Sep  9 12:00 wrfout_d01_2024-08-25_00:00:00
 7688 -rw-r--r-- 1 swe swe  7870953 Sep  9 12:04 wrfout_d01_2024-08-25_01:00:00
 7772 -rw-r--r-- 1 swe swe  7956488 Sep  9 12:08 wrfout_d01_2024-08-25_02:00:00
 7796 -rw-r--r-- 1 swe swe  7979877 Sep  9 12:12 wrfout_d01_2024-08-25_03:00:00
 7788 -rw-r--r-- 1 swe swe  7972246 Sep  9 12:16 wrfout_d01_2024-08-25_04:00:00
 7772 -rw-r--r-- 1 swe swe  7957935 Sep  9 12:20 wrfout_d01_2024-08-25_05:00:00
 7772 -rw-r--r-- 1 swe swe  7957629 Sep  9 12:24 wrfout_d01_2024-08-25_06:00:00
12576 -rw-r--r-- 1 swe swe 12874330 Sep  9 12:00 wrfout_d02_2024-08-25_00:00:00
15420 -rw-r--r-- 1 swe swe 15790033 Sep  9 12:04 wrfout_d02_2024-08-25_01:00:00
15760 -rw-r--r-- 1 swe swe 16135288 Sep  9 12:08 wrfout_d02_2024-08-25_02:00:00
15844 -rw-r--r-- 1 swe swe 16221694 Sep  9 12:12 wrfout_d02_2024-08-25_03:00:00
15860 -rw-r--r-- 1 swe swe 16239750 Sep  9 12:16 wrfout_d02_2024-08-25_04:00:00
15856 -rw-r--r-- 1 swe swe 16236275 Sep  9 12:20 wrfout_d02_2024-08-25_05:00:00
15780 -rw-r--r-- 1 swe swe 16156623 Sep  9 12:24 wrfout_d02_2024-08-25_06:00:00

WRF with 1 CPU(s) finished

WRF with 2 CPU(s) started
Start: Mon Sep  9 12:24:11 PM UTC 2024
 starting wrf task            1  of            2
 starting wrf task            0  of            2
Finish: Mon Sep  9 12:38:18 PM UTC 2024

rsl.error.0000 result:
Timing for main: time 2024-08-25_05:59:30 on domain   2:    0.75682 elapsed seconds
Timing for main: time 2024-08-25_06:00:00 on domain   2:    0.75968 elapsed seconds
 mediation_integrate.G        1242 DATASET=HISTORY
 mediation_integrate.G        1243  grid%id            2  grid%oid            2
Timing for Writing wrfout_d02_2024-08-25_06:00:00 for domain        2:    0.89418 elapsed seconds
Timing for main: time 2024-08-25_06:00:00 on domain   1:    3.95279 elapsed seconds
 mediation_integrate.G        1242 DATASET=HISTORY
 mediation_integrate.G        1243  grid%id            1  grid%oid            2
Timing for Writing wrfout_d01_2024-08-25_06:00:00 for domain        1:    0.46937 elapsed seconds
d01 2024-08-25_06:00:00 wrf: SUCCESS COMPLETE WRF

rsl.out.0000 result:
Timing for main: time 2024-08-25_05:58:00 on domain   2:    0.75795 elapsed seconds
Timing for main: time 2024-08-25_05:58:30 on domain   2:    0.76242 elapsed seconds
Timing for main: time 2024-08-25_05:58:30 on domain   1:    3.07821 elapsed seconds
Timing for main: time 2024-08-25_05:59:00 on domain   2:    0.75408 elapsed seconds
Timing for main: time 2024-08-25_05:59:30 on domain   2:    0.75682 elapsed seconds
Timing for main: time 2024-08-25_06:00:00 on domain   2:    0.75968 elapsed seconds
Timing for Writing wrfout_d02_2024-08-25_06:00:00 for domain        2:    0.89418 elapsed seconds
Timing for main: time 2024-08-25_06:00:00 on domain   1:    3.95279 elapsed seconds
Timing for Writing wrfout_d01_2024-08-25_06:00:00 for domain        1:    0.46937 elapsed seconds
d01 2024-08-25_06:00:00 wrf: SUCCESS COMPLETE WRF

rsl.error.0001 result:
 mediation_integrate.G        1243  grid%id            2  grid%oid            2
 mediation_integrate.G        1242 DATASET=HISTORY
 mediation_integrate.G        1243  grid%id            1  grid%oid            2
 mediation_integrate.G        1242 DATASET=HISTORY
 mediation_integrate.G        1243  grid%id            2  grid%oid            2
 mediation_integrate.G        1242 DATASET=HISTORY
 mediation_integrate.G        1243  grid%id            2  grid%oid            2
 mediation_integrate.G        1242 DATASET=HISTORY
 mediation_integrate.G        1243  grid%id            1  grid%oid            2
d01 2024-08-25_06:00:00 wrf: SUCCESS COMPLETE WRF

rsl.out.0001 result:
WRF TILE   1 IS      1 IE     74 JS     31 JE     61
WRF NUMBER OF TILES =   1
d01 2024-08-25_00:00:00  ----------------------------------------
d01 2024-08-25_00:00:00  W-DAMPING  BEGINS AT W-COURANT NUMBER =    1.00000000
d01 2024-08-25_00:00:00  ----------------------------------------
 Tile Strategy is not specified. Assuming 1D-Y
WRF TILE   1 IS      1 IE    112 JS     49 JE     97
WRF NUMBER OF TILES =   1
d01 2024-08-25_03:00:00  Input data is acceptable to use:
d01 2024-08-25_06:00:00 wrf: SUCCESS COMPLETE WRF

Present wrfout files:
 6508 -rw-r--r-- 1 swe swe  6663034 Sep  9 12:24 wrfout_d01_2024-08-25_00:00:00
 7688 -rw-r--r-- 1 swe swe  7870953 Sep  9 12:26 wrfout_d01_2024-08-25_01:00:00
 7772 -rw-r--r-- 1 swe swe  7956488 Sep  9 12:28 wrfout_d01_2024-08-25_02:00:00
 7796 -rw-r--r-- 1 swe swe  7979877 Sep  9 12:31 wrfout_d01_2024-08-25_03:00:00
 7788 -rw-r--r-- 1 swe swe  7972246 Sep  9 12:33 wrfout_d01_2024-08-25_04:00:00
 7772 -rw-r--r-- 1 swe swe  7957935 Sep  9 12:35 wrfout_d01_2024-08-25_05:00:00
 7772 -rw-r--r-- 1 swe swe  7957629 Sep  9 12:38 wrfout_d01_2024-08-25_06:00:00
12576 -rw-r--r-- 1 swe swe 12874330 Sep  9 12:24 wrfout_d02_2024-08-25_00:00:00
15420 -rw-r--r-- 1 swe swe 15790033 Sep  9 12:26 wrfout_d02_2024-08-25_01:00:00
15760 -rw-r--r-- 1 swe swe 16135288 Sep  9 12:28 wrfout_d02_2024-08-25_02:00:00
15844 -rw-r--r-- 1 swe swe 16221694 Sep  9 12:31 wrfout_d02_2024-08-25_03:00:00
15860 -rw-r--r-- 1 swe swe 16239750 Sep  9 12:33 wrfout_d02_2024-08-25_04:00:00
15856 -rw-r--r-- 1 swe swe 16236275 Sep  9 12:35 wrfout_d02_2024-08-25_05:00:00
15780 -rw-r--r-- 1 swe swe 16156623 Sep  9 12:38 wrfout_d02_2024-08-25_06:00:00

WRF with 2 CPU(s) finished

WRF with 3 CPU(s) started
Start: Mon Sep  9 12:38:18 PM UTC 2024
 starting wrf task            2  of            3
 starting wrf task            0  of            3
 starting wrf task            1  of            3
Finish: Mon Sep  9 12:53:39 PM UTC 2024

rsl.error.0000 result:
Timing for main: time 2024-08-25_05:59:30 on domain   2:    0.78095 elapsed seconds
Timing for main: time 2024-08-25_06:00:00 on domain   2:    0.78272 elapsed seconds
 mediation_integrate.G        1242 DATASET=HISTORY
 mediation_integrate.G        1243  grid%id            2  grid%oid            2
Timing for Writing wrfout_d02_2024-08-25_06:00:00 for domain        2:    1.32337 elapsed seconds
Timing for main: time 2024-08-25_06:00:00 on domain   1:    4.64252 elapsed seconds
 mediation_integrate.G        1242 DATASET=HISTORY
 mediation_integrate.G        1243  grid%id            1  grid%oid            2
Timing for Writing wrfout_d01_2024-08-25_06:00:00 for domain        1:    0.69251 elapsed seconds
d01 2024-08-25_06:00:00 wrf: SUCCESS COMPLETE WRF

rsl.out.0000 result:
Timing for main: time 2024-08-25_05:58:00 on domain   2:    0.79010 elapsed seconds
Timing for main: time 2024-08-25_05:58:30 on domain   2:    0.79134 elapsed seconds
Timing for main: time 2024-08-25_05:58:30 on domain   1:    3.34206 elapsed seconds
Timing for main: time 2024-08-25_05:59:00 on domain   2:    0.78172 elapsed seconds
Timing for main: time 2024-08-25_05:59:30 on domain   2:    0.78095 elapsed seconds
Timing for main: time 2024-08-25_06:00:00 on domain   2:    0.78272 elapsed seconds
Timing for Writing wrfout_d02_2024-08-25_06:00:00 for domain        2:    1.32337 elapsed seconds
Timing for main: time 2024-08-25_06:00:00 on domain   1:    4.64252 elapsed seconds
Timing for Writing wrfout_d01_2024-08-25_06:00:00 for domain        1:    0.69251 elapsed seconds
d01 2024-08-25_06:00:00 wrf: SUCCESS COMPLETE WRF

rsl.error.0001 result:
 mediation_integrate.G        1243  grid%id            2  grid%oid            2
 mediation_integrate.G        1242 DATASET=HISTORY
 mediation_integrate.G        1243  grid%id            1  grid%oid            2
 mediation_integrate.G        1242 DATASET=HISTORY
 mediation_integrate.G        1243  grid%id            2  grid%oid            2
 mediation_integrate.G        1242 DATASET=HISTORY
 mediation_integrate.G        1243  grid%id            2  grid%oid            2
 mediation_integrate.G        1242 DATASET=HISTORY
 mediation_integrate.G        1243  grid%id            1  grid%oid            2
d01 2024-08-25_06:00:00 wrf: SUCCESS COMPLETE WRF

rsl.out.0001 result:
WRF TILE   1 IS      1 IE     74 JS     21 JE     40
WRF NUMBER OF TILES =   1
d01 2024-08-25_00:00:00  ----------------------------------------
d01 2024-08-25_00:00:00  W-DAMPING  BEGINS AT W-COURANT NUMBER =    1.00000000
d01 2024-08-25_00:00:00  ----------------------------------------
 Tile Strategy is not specified. Assuming 1D-Y
WRF TILE   1 IS      1 IE    112 JS     33 JE     64
WRF NUMBER OF TILES =   1
d01 2024-08-25_03:00:00  Input data is acceptable to use:
d01 2024-08-25_06:00:00 wrf: SUCCESS COMPLETE WRF

rsl.error.0002 result:
 mediation_integrate.G        1243  grid%id            2  grid%oid            2
 mediation_integrate.G        1242 DATASET=HISTORY
 mediation_integrate.G        1243  grid%id            1  grid%oid            2
 mediation_integrate.G        1242 DATASET=HISTORY
 mediation_integrate.G        1243  grid%id            2  grid%oid            2
 mediation_integrate.G        1242 DATASET=HISTORY
 mediation_integrate.G        1243  grid%id            2  grid%oid            2
 mediation_integrate.G        1242 DATASET=HISTORY
 mediation_integrate.G        1243  grid%id            1  grid%oid            2
d01 2024-08-25_06:00:00 wrf: SUCCESS COMPLETE WRF

rsl.out.0002 result:
WRF TILE   1 IS      1 IE     74 JS     41 JE     61
WRF NUMBER OF TILES =   1
d01 2024-08-25_00:00:00  ----------------------------------------
d01 2024-08-25_00:00:00  W-DAMPING  BEGINS AT W-COURANT NUMBER =    1.00000000
d01 2024-08-25_00:00:00  ----------------------------------------
 Tile Strategy is not specified. Assuming 1D-Y
WRF TILE   1 IS      1 IE    112 JS     65 JE     97
WRF NUMBER OF TILES =   1
d01 2024-08-25_03:00:00  Input data is acceptable to use:
d01 2024-08-25_06:00:00 wrf: SUCCESS COMPLETE WRF

Present wrfout files:
 6508 -rw-r--r-- 1 swe swe  6663034 Sep  9 12:38 wrfout_d01_2024-08-25_00:00:00
 7688 -rw-r--r-- 1 swe swe  7870953 Sep  9 12:40 wrfout_d01_2024-08-25_01:00:00
 7772 -rw-r--r-- 1 swe swe  7956488 Sep  9 12:43 wrfout_d01_2024-08-25_02:00:00
 7796 -rw-r--r-- 1 swe swe  7979877 Sep  9 12:45 wrfout_d01_2024-08-25_03:00:00
 7788 -rw-r--r-- 1 swe swe  7972246 Sep  9 12:48 wrfout_d01_2024-08-25_04:00:00
 7772 -rw-r--r-- 1 swe swe  7957935 Sep  9 12:51 wrfout_d01_2024-08-25_05:00:00
 7772 -rw-r--r-- 1 swe swe  7957629 Sep  9 12:53 wrfout_d01_2024-08-25_06:00:00
12576 -rw-r--r-- 1 swe swe 12874330 Sep  9 12:38 wrfout_d02_2024-08-25_00:00:00
15420 -rw-r--r-- 1 swe swe 15790033 Sep  9 12:40 wrfout_d02_2024-08-25_01:00:00
15760 -rw-r--r-- 1 swe swe 16135288 Sep  9 12:43 wrfout_d02_2024-08-25_02:00:00
15844 -rw-r--r-- 1 swe swe 16221694 Sep  9 12:46 wrfout_d02_2024-08-25_03:00:00
15860 -rw-r--r-- 1 swe swe 16239750 Sep  9 12:48 wrfout_d02_2024-08-25_04:00:00
15856 -rw-r--r-- 1 swe swe 16236275 Sep  9 12:51 wrfout_d02_2024-08-25_05:00:00
15780 -rw-r--r-- 1 swe swe 16156623 Sep  9 12:53 wrfout_d02_2024-08-25_06:00:00

WRF with 3 CPU(s) finished

WRF with 4 CPU(s) started
Start: Mon Sep  9 12:53:39 PM UTC 2024
 starting wrf task            0  of            4
 starting wrf task            1  of            4
 starting wrf task            2  of            4
 starting wrf task            3  of            4
Finish: Mon Sep  9 01:08:51 PM UTC 2024

rsl.error.0000 result:
Timing for main: time 2024-08-25_05:59:30 on domain   2:    0.80447 elapsed seconds
Timing for main: time 2024-08-25_06:00:00 on domain   2:    0.81889 elapsed seconds
 mediation_integrate.G        1242 DATASET=HISTORY
 mediation_integrate.G        1243  grid%id            2  grid%oid            2
Timing for Writing wrfout_d02_2024-08-25_06:00:00 for domain        2:    1.38326 elapsed seconds
Timing for main: time 2024-08-25_06:00:00 on domain   1:    4.70438 elapsed seconds
 mediation_integrate.G        1242 DATASET=HISTORY
 mediation_integrate.G        1243  grid%id            1  grid%oid            2
Timing for Writing wrfout_d01_2024-08-25_06:00:00 for domain        1:    0.70849 elapsed seconds
d01 2024-08-25_06:00:00 wrf: SUCCESS COMPLETE WRF

rsl.out.0000 result:
Timing for main: time 2024-08-25_05:58:00 on domain   2:    0.80039 elapsed seconds
Timing for main: time 2024-08-25_05:58:30 on domain   2:    0.81859 elapsed seconds
Timing for main: time 2024-08-25_05:58:30 on domain   1:    3.34012 elapsed seconds
Timing for main: time 2024-08-25_05:59:00 on domain   2:    0.80779 elapsed seconds
Timing for main: time 2024-08-25_05:59:30 on domain   2:    0.80447 elapsed seconds
Timing for main: time 2024-08-25_06:00:00 on domain   2:    0.81889 elapsed seconds
Timing for Writing wrfout_d02_2024-08-25_06:00:00 for domain        2:    1.38326 elapsed seconds
Timing for main: time 2024-08-25_06:00:00 on domain   1:    4.70438 elapsed seconds
Timing for Writing wrfout_d01_2024-08-25_06:00:00 for domain        1:    0.70849 elapsed seconds
d01 2024-08-25_06:00:00 wrf: SUCCESS COMPLETE WRF

rsl.error.0001 result:
 mediation_integrate.G        1243  grid%id            2  grid%oid            2
 mediation_integrate.G        1242 DATASET=HISTORY
 mediation_integrate.G        1243  grid%id            1  grid%oid            2
 mediation_integrate.G        1242 DATASET=HISTORY
 mediation_integrate.G        1243  grid%id            2  grid%oid            2
 mediation_integrate.G        1242 DATASET=HISTORY
 mediation_integrate.G        1243  grid%id            2  grid%oid            2
 mediation_integrate.G        1242 DATASET=HISTORY
 mediation_integrate.G        1243  grid%id            1  grid%oid            2
d01 2024-08-25_06:00:00 wrf: SUCCESS COMPLETE WRF

rsl.out.0001 result:
WRF TILE   1 IS     38 IE     74 JS      1 JE     30
WRF NUMBER OF TILES =   1
d01 2024-08-25_00:00:00  ----------------------------------------
d01 2024-08-25_00:00:00  W-DAMPING  BEGINS AT W-COURANT NUMBER =    1.00000000
d01 2024-08-25_00:00:00  ----------------------------------------
 Tile Strategy is not specified. Assuming 1D-Y
WRF TILE   1 IS     57 IE    112 JS      1 JE     48
WRF NUMBER OF TILES =   1
d01 2024-08-25_03:00:00  Input data is acceptable to use:
d01 2024-08-25_06:00:00 wrf: SUCCESS COMPLETE WRF

rsl.error.0002 result:
 mediation_integrate.G        1243  grid%id            2  grid%oid            2
 mediation_integrate.G        1242 DATASET=HISTORY
 mediation_integrate.G        1243  grid%id            1  grid%oid            2
 mediation_integrate.G        1242 DATASET=HISTORY
 mediation_integrate.G        1243  grid%id            2  grid%oid            2
 mediation_integrate.G        1242 DATASET=HISTORY
 mediation_integrate.G        1243  grid%id            2  grid%oid            2
 mediation_integrate.G        1242 DATASET=HISTORY
 mediation_integrate.G        1243  grid%id            1  grid%oid            2
d01 2024-08-25_06:00:00 wrf: SUCCESS COMPLETE WRF

rsl.out.0002 result:
WRF TILE   1 IS      1 IE     37 JS     31 JE     61
WRF NUMBER OF TILES =   1
d01 2024-08-25_00:00:00  ----------------------------------------
d01 2024-08-25_00:00:00  W-DAMPING  BEGINS AT W-COURANT NUMBER =    1.00000000
d01 2024-08-25_00:00:00  ----------------------------------------
 Tile Strategy is not specified. Assuming 1D-Y
WRF TILE   1 IS      1 IE     56 JS     49 JE     97
WRF NUMBER OF TILES =   1
d01 2024-08-25_03:00:00  Input data is acceptable to use:
d01 2024-08-25_06:00:00 wrf: SUCCESS COMPLETE WRF

rsl.error.0003 result:
 mediation_integrate.G        1243  grid%id            2  grid%oid            2
 mediation_integrate.G        1242 DATASET=HISTORY
 mediation_integrate.G        1243  grid%id            1  grid%oid            2
 mediation_integrate.G        1242 DATASET=HISTORY
 mediation_integrate.G        1243  grid%id            2  grid%oid            2
 mediation_integrate.G        1242 DATASET=HISTORY
 mediation_integrate.G        1243  grid%id            2  grid%oid            2
 mediation_integrate.G        1242 DATASET=HISTORY
 mediation_integrate.G        1243  grid%id            1  grid%oid            2
d01 2024-08-25_06:00:00 wrf: SUCCESS COMPLETE WRF

rsl.out.0003 result:
WRF TILE   1 IS     38 IE     74 JS     31 JE     61
WRF NUMBER OF TILES =   1
d01 2024-08-25_00:00:00  ----------------------------------------
d01 2024-08-25_00:00:00  W-DAMPING  BEGINS AT W-COURANT NUMBER =    1.00000000
d01 2024-08-25_00:00:00  ----------------------------------------
 Tile Strategy is not specified. Assuming 1D-Y
WRF TILE   1 IS     57 IE    112 JS     49 JE     97
WRF NUMBER OF TILES =   1
d01 2024-08-25_03:00:00  Input data is acceptable to use:
d01 2024-08-25_06:00:00 wrf: SUCCESS COMPLETE WRF

Present wrfout files:
 6508 -rw-r--r-- 1 swe swe  6663034 Sep  9 12:53 wrfout_d01_2024-08-25_00:00:00
 7688 -rw-r--r-- 1 swe swe  7870119 Sep  9 12:56 wrfout_d01_2024-08-25_01:00:00
 7772 -rw-r--r-- 1 swe swe  7956823 Sep  9 12:58 wrfout_d01_2024-08-25_02:00:00
 7796 -rw-r--r-- 1 swe swe  7979627 Sep  9 13:01 wrfout_d01_2024-08-25_03:00:00
 7788 -rw-r--r-- 1 swe swe  7972793 Sep  9 13:03 wrfout_d01_2024-08-25_04:00:00
 7776 -rw-r--r-- 1 swe swe  7958606 Sep  9 13:06 wrfout_d01_2024-08-25_05:00:00
 7772 -rw-r--r-- 1 swe swe  7957747 Sep  9 13:08 wrfout_d01_2024-08-25_06:00:00
12576 -rw-r--r-- 1 swe swe 12874330 Sep  9 12:53 wrfout_d02_2024-08-25_00:00:00
15420 -rw-r--r-- 1 swe swe 15788135 Sep  9 12:56 wrfout_d02_2024-08-25_01:00:00
15760 -rw-r--r-- 1 swe swe 16135353 Sep  9 12:58 wrfout_d02_2024-08-25_02:00:00
15844 -rw-r--r-- 1 swe swe 16223178 Sep  9 13:01 wrfout_d02_2024-08-25_03:00:00
15860 -rw-r--r-- 1 swe swe 16238196 Sep  9 13:03 wrfout_d02_2024-08-25_04:00:00
15860 -rw-r--r-- 1 swe swe 16240029 Sep  9 13:06 wrfout_d02_2024-08-25_05:00:00
15784 -rw-r--r-- 1 swe swe 16161613 Sep  9 13:08 wrfout_d02_2024-08-25_06:00:00

WRF with 4 CPU(s) finished
