Beginning WRF with 2 CPU(s) in Single-run mode

WRF with 2 CPU(s) started
Start: Thu Sep  5 08:58:24 AM UTC 2024
 starting wrf task            0  of            2
 starting wrf task            1  of            2
Finish: Thu Sep  5 09:12:27 AM UTC 2024

rsl.error.0000 result:
Timing for main: time 2024-08-25_05:59:30 on domain   2:    0.75255 elapsed seconds
Timing for main: time 2024-08-25_06:00:00 on domain   2:    0.75357 elapsed seconds
 mediation_integrate.G        1242 DATASET=HISTORY
 mediation_integrate.G        1243  grid%id            2  grid%oid            2
Timing for Writing wrfout_d02_2024-08-25_06:00:00 for domain        2:    0.89574 elapsed seconds
Timing for main: time 2024-08-25_06:00:00 on domain   1:    3.94706 elapsed seconds
 mediation_integrate.G        1242 DATASET=HISTORY
 mediation_integrate.G        1243  grid%id            1  grid%oid            2
Timing for Writing wrfout_d01_2024-08-25_06:00:00 for domain        1:    0.47075 elapsed seconds
d01 2024-08-25_06:00:00 wrf: SUCCESS COMPLETE WRF

rsl.out.0000 result:
Timing for main: time 2024-08-25_05:58:00 on domain   2:    0.75598 elapsed seconds
Timing for main: time 2024-08-25_05:58:30 on domain   2:    0.75675 elapsed seconds
Timing for main: time 2024-08-25_05:58:30 on domain   1:    3.07908 elapsed seconds
Timing for main: time 2024-08-25_05:59:00 on domain   2:    0.75507 elapsed seconds
Timing for main: time 2024-08-25_05:59:30 on domain   2:    0.75255 elapsed seconds
Timing for main: time 2024-08-25_06:00:00 on domain   2:    0.75357 elapsed seconds
Timing for Writing wrfout_d02_2024-08-25_06:00:00 for domain        2:    0.89574 elapsed seconds
Timing for main: time 2024-08-25_06:00:00 on domain   1:    3.94706 elapsed seconds
Timing for Writing wrfout_d01_2024-08-25_06:00:00 for domain        1:    0.47075 elapsed seconds
d01 2024-08-25_06:00:00 wrf: SUCCESS COMPLETE WRF

rsl.error.0001 result:
 mediation_integrate.G        1243  grid%id            2  grid%oid            2
 mediation_integrate.G        1242 DATASET=HISTORY
 mediation_integrate.G        1243  grid%id            1  grid%oid            2
 mediation_integrate.G        1242 DATASET=HISTORY
 mediation_integrate.G        1243  grid%id            2  grid%oid            2
 mediation_integrate.G        1242 DATASET=HISTORY
 mediation_integrate.G        1243  grid%id            2  grid%oid            2
 mediation_integrate.G        1242 DATASET=HISTORY
 mediation_integrate.G        1243  grid%id            1  grid%oid            2
d01 2024-08-25_06:00:00 wrf: SUCCESS COMPLETE WRF

rsl.out.0001 result:
WRF TILE   1 IS      1 IE     74 JS     31 JE     61
WRF NUMBER OF TILES =   1
d01 2024-08-25_00:00:00  ----------------------------------------
d01 2024-08-25_00:00:00  W-DAMPING  BEGINS AT W-COURANT NUMBER =    1.00000000
d01 2024-08-25_00:00:00  ----------------------------------------
 Tile Strategy is not specified. Assuming 1D-Y
WRF TILE   1 IS      1 IE    112 JS     49 JE     97
WRF NUMBER OF TILES =   1
d01 2024-08-25_03:00:00  Input data is acceptable to use:
d01 2024-08-25_06:00:00 wrf: SUCCESS COMPLETE WRF

WRF with 2 CPU(s) finished
