Beginning WRF with 3 cycles in Incremental and Mixed modes
WRF with 1 CPU(s) started natively
Start (Native): seg 16 set 2024 12:52:58 WEST
 starting wrf task            0  of            1
ubuntu24.04-wrf-gcc
WRF with 3 CPU(s) started in Docker
Start (Docker): seg 16 set 2024 12:52:58 WEST
 starting wrf task            0  of            3
 starting wrf task            1  of            3
 starting wrf task            2  of            3
Finish (Docker): seg 16 set 2024 13:11:22 WEST

rsl.error.0000 result (Docker):
Timing for main: time 2024-08-25_05:59:30 on domain   2:    0.84841 elapsed seconds
Timing for main: time 2024-08-25_06:00:00 on domain   2:    0.88595 elapsed seconds
 mediation_integrate.G        1242 DATASET=HISTORY
 mediation_integrate.G        1243  grid%id            2  grid%oid            2
Timing for Writing wrfout_d02_2024-08-25_06:00:00 for domain        2:    1.42549 elapsed seconds
Timing for main: time 2024-08-25_06:00:00 on domain   1:    5.02568 elapsed seconds
 mediation_integrate.G        1242 DATASET=HISTORY
 mediation_integrate.G        1243  grid%id            1  grid%oid            2
Timing for Writing wrfout_d01_2024-08-25_06:00:00 for domain        1:    0.84920 elapsed seconds
d01 2024-08-25_06:00:00 wrf: SUCCESS COMPLETE WRF

rsl.out.0000 result (Docker):
Timing for main: time 2024-08-25_05:58:00 on domain   2:    0.84266 elapsed seconds
Timing for main: time 2024-08-25_05:58:30 on domain   2:    0.96863 elapsed seconds
Timing for main: time 2024-08-25_05:58:30 on domain   1:    3.77465 elapsed seconds
Timing for main: time 2024-08-25_05:59:00 on domain   2:    0.81212 elapsed seconds
Timing for main: time 2024-08-25_05:59:30 on domain   2:    0.84841 elapsed seconds
Timing for main: time 2024-08-25_06:00:00 on domain   2:    0.88595 elapsed seconds
Timing for Writing wrfout_d02_2024-08-25_06:00:00 for domain        2:    1.42549 elapsed seconds
Timing for main: time 2024-08-25_06:00:00 on domain   1:    5.02568 elapsed seconds
Timing for Writing wrfout_d01_2024-08-25_06:00:00 for domain        1:    0.84920 elapsed seconds
d01 2024-08-25_06:00:00 wrf: SUCCESS COMPLETE WRF

rsl.error.0001 result (Docker):
 mediation_integrate.G        1243  grid%id            2  grid%oid            2
 mediation_integrate.G        1242 DATASET=HISTORY
 mediation_integrate.G        1243  grid%id            1  grid%oid            2
 mediation_integrate.G        1242 DATASET=HISTORY
 mediation_integrate.G        1243  grid%id            2  grid%oid            2
 mediation_integrate.G        1242 DATASET=HISTORY
 mediation_integrate.G        1243  grid%id            2  grid%oid            2
 mediation_integrate.G        1242 DATASET=HISTORY
 mediation_integrate.G        1243  grid%id            1  grid%oid            2
d01 2024-08-25_06:00:00 wrf: SUCCESS COMPLETE WRF

rsl.out.0001 result (Docker):
WRF TILE   1 IS      1 IE     74 JS     21 JE     40
WRF NUMBER OF TILES =   1
d01 2024-08-25_00:00:00  ----------------------------------------
d01 2024-08-25_00:00:00  W-DAMPING  BEGINS AT W-COURANT NUMBER =    1.00000000
d01 2024-08-25_00:00:00  ----------------------------------------
 Tile Strategy is not specified. Assuming 1D-Y
WRF TILE   1 IS      1 IE    112 JS     33 JE     64
WRF NUMBER OF TILES =   1
d01 2024-08-25_03:00:00  Input data is acceptable to use:
d01 2024-08-25_06:00:00 wrf: SUCCESS COMPLETE WRF

rsl.error.0002 result (Docker):
 mediation_integrate.G        1243  grid%id            2  grid%oid            2
 mediation_integrate.G        1242 DATASET=HISTORY
 mediation_integrate.G        1243  grid%id            1  grid%oid            2
 mediation_integrate.G        1242 DATASET=HISTORY
 mediation_integrate.G        1243  grid%id            2  grid%oid            2
 mediation_integrate.G        1242 DATASET=HISTORY
 mediation_integrate.G        1243  grid%id            2  grid%oid            2
 mediation_integrate.G        1242 DATASET=HISTORY
 mediation_integrate.G        1243  grid%id            1  grid%oid            2
d01 2024-08-25_06:00:00 wrf: SUCCESS COMPLETE WRF

rsl.out.0002 result (Docker):
WRF TILE   1 IS      1 IE     74 JS     41 JE     61
WRF NUMBER OF TILES =   1
d01 2024-08-25_00:00:00  ----------------------------------------
d01 2024-08-25_00:00:00  W-DAMPING  BEGINS AT W-COURANT NUMBER =    1.00000000
d01 2024-08-25_00:00:00  ----------------------------------------
 Tile Strategy is not specified. Assuming 1D-Y
WRF TILE   1 IS      1 IE    112 JS     65 JE     97
WRF NUMBER OF TILES =   1
d01 2024-08-25_03:00:00  Input data is acceptable to use:
d01 2024-08-25_06:00:00 wrf: SUCCESS COMPLETE WRF

Present wrfout files (Docker):
 6508 -rw-r--r-- 1 swe swe  6663034 Sep 16 11:53 /home/swe/wrf/WRF/WRF/test/em_real/wrfout_d01_2024-08-25_00:00:00
 7688 -rw-r--r-- 1 swe swe  7870953 Sep 16 11:56 /home/swe/wrf/WRF/WRF/test/em_real/wrfout_d01_2024-08-25_01:00:00
 7772 -rw-r--r-- 1 swe swe  7956488 Sep 16 11:59 /home/swe/wrf/WRF/WRF/test/em_real/wrfout_d01_2024-08-25_02:00:00
 7796 -rw-r--r-- 1 swe swe  7979877 Sep 16 12:02 /home/swe/wrf/WRF/WRF/test/em_real/wrfout_d01_2024-08-25_03:00:00
 7788 -rw-r--r-- 1 swe swe  7972246 Sep 16 12:05 /home/swe/wrf/WRF/WRF/test/em_real/wrfout_d01_2024-08-25_04:00:00
 7772 -rw-r--r-- 1 swe swe  7957935 Sep 16 12:08 /home/swe/wrf/WRF/WRF/test/em_real/wrfout_d01_2024-08-25_05:00:00
 7772 -rw-r--r-- 1 swe swe  7957629 Sep 16 12:11 /home/swe/wrf/WRF/WRF/test/em_real/wrfout_d01_2024-08-25_06:00:00
12576 -rw-r--r-- 1 swe swe 12874330 Sep 16 11:53 /home/swe/wrf/WRF/WRF/test/em_real/wrfout_d02_2024-08-25_00:00:00
15420 -rw-r--r-- 1 swe swe 15790033 Sep 16 11:56 /home/swe/wrf/WRF/WRF/test/em_real/wrfout_d02_2024-08-25_01:00:00
15760 -rw-r--r-- 1 swe swe 16135288 Sep 16 11:59 /home/swe/wrf/WRF/WRF/test/em_real/wrfout_d02_2024-08-25_02:00:00
15844 -rw-r--r-- 1 swe swe 16221694 Sep 16 12:02 /home/swe/wrf/WRF/WRF/test/em_real/wrfout_d02_2024-08-25_03:00:00
15860 -rw-r--r-- 1 swe swe 16239750 Sep 16 12:05 /home/swe/wrf/WRF/WRF/test/em_real/wrfout_d02_2024-08-25_04:00:00
15856 -rw-r--r-- 1 swe swe 16236275 Sep 16 12:08 /home/swe/wrf/WRF/WRF/test/em_real/wrfout_d02_2024-08-25_05:00:00
15780 -rw-r--r-- 1 swe swe 16156623 Sep 16 12:11 /home/swe/wrf/WRF/WRF/test/em_real/wrfout_d02_2024-08-25_06:00:00

ubuntu24.04-wrf-gcc
Finish (Native): seg 16 set 2024 13:25:30 WEST

rsl.error.0000 result (Native):
Timing for main: time 2024-08-25_05:59:30 on domain   2:    1.23699 elapsed seconds
Timing for main: time 2024-08-25_06:00:00 on domain   2:    1.24408 elapsed seconds
 mediation_integrate.G        1242 DATASET=HISTORY
 mediation_integrate.G        1243  grid%id            2  grid%oid            2
Timing for Writing wrfout_d02_2024-08-25_06:00:00 for domain        2:    0.86782 elapsed seconds
Timing for main: time 2024-08-25_06:00:00 on domain   1:    5.99176 elapsed seconds
 mediation_integrate.G        1242 DATASET=HISTORY
 mediation_integrate.G        1243  grid%id            1  grid%oid            2
Timing for Writing wrfout_d01_2024-08-25_06:00:00 for domain        1:    0.45471 elapsed seconds
d01 2024-08-25_06:00:00 wrf: SUCCESS COMPLETE WRF

rsl.out.0000 result (Native):
Timing for main: time 2024-08-25_05:58:00 on domain   2:    1.24964 elapsed seconds
Timing for main: time 2024-08-25_05:58:30 on domain   2:    1.23975 elapsed seconds
Timing for main: time 2024-08-25_05:58:30 on domain   1:    5.14853 elapsed seconds
Timing for main: time 2024-08-25_05:59:00 on domain   2:    1.24540 elapsed seconds
Timing for main: time 2024-08-25_05:59:30 on domain   2:    1.23699 elapsed seconds
Timing for main: time 2024-08-25_06:00:00 on domain   2:    1.24408 elapsed seconds
Timing for Writing wrfout_d02_2024-08-25_06:00:00 for domain        2:    0.86782 elapsed seconds
Timing for main: time 2024-08-25_06:00:00 on domain   1:    5.99176 elapsed seconds
Timing for Writing wrfout_d01_2024-08-25_06:00:00 for domain        1:    0.45471 elapsed seconds
d01 2024-08-25_06:00:00 wrf: SUCCESS COMPLETE WRF

Present wrfout files (Native):
 6508 -rw-rw-r-- 1 oom oom  6663034 set 16 12:53 wrfout_d01_2024-08-25_00:00:00
 7688 -rw-rw-r-- 1 oom oom  7870953 set 16 13:00 wrfout_d01_2024-08-25_01:00:00
 7772 -rw-rw-r-- 1 oom oom  7956488 set 16 13:07 wrfout_d01_2024-08-25_02:00:00
 7796 -rw-rw-r-- 1 oom oom  7979877 set 16 13:13 wrfout_d01_2024-08-25_03:00:00
 7788 -rw-rw-r-- 1 oom oom  7972246 set 16 13:17 wrfout_d01_2024-08-25_04:00:00
 7772 -rw-rw-r-- 1 oom oom  7957935 set 16 13:21 wrfout_d01_2024-08-25_05:00:00
 7772 -rw-rw-r-- 1 oom oom  7957629 set 16 13:25 wrfout_d01_2024-08-25_06:00:00
12576 -rw-rw-r-- 1 oom oom 12874330 set 16 12:53 wrfout_d02_2024-08-25_00:00:00
15420 -rw-rw-r-- 1 oom oom 15790033 set 16 13:00 wrfout_d02_2024-08-25_01:00:00
15760 -rw-rw-r-- 1 oom oom 16135288 set 16 13:07 wrfout_d02_2024-08-25_02:00:00
15844 -rw-rw-r-- 1 oom oom 16221694 set 16 13:13 wrfout_d02_2024-08-25_03:00:00
15860 -rw-rw-r-- 1 oom oom 16239750 set 16 13:17 wrfout_d02_2024-08-25_04:00:00
15856 -rw-rw-r-- 1 oom oom 16236275 set 16 13:21 wrfout_d02_2024-08-25_05:00:00
15780 -rw-rw-r-- 1 oom oom 16156623 set 16 13:25 wrfout_d02_2024-08-25_06:00:00

WRF with 1 CPU(s) (Native) and 3 CPU(s) (Docker) finished
WRF with 2 CPU(s) started natively
Start (Native): seg 16 set 2024 13:25:30 WEST
 starting wrf task            0  of            2
 starting wrf task            1  of            2
ubuntu24.04-wrf-gcc
WRF with 2 CPU(s) started in Docker
Start (Docker): seg 16 set 2024 13:25:35 WEST
 starting wrf task            0  of            2
 starting wrf task            1  of            2
Finish (Native): seg 16 set 2024 13:49:55 WEST

rsl.error.0000 result (Native):
Timing for main: time 2024-08-25_05:59:30 on domain   2:    1.17815 elapsed seconds
Timing for main: time 2024-08-25_06:00:00 on domain   2:    1.21333 elapsed seconds
 mediation_integrate.G        1242 DATASET=HISTORY
 mediation_integrate.G        1243  grid%id            2  grid%oid            2
Timing for Writing wrfout_d02_2024-08-25_06:00:00 for domain        2:    1.38190 elapsed seconds
Timing for main: time 2024-08-25_06:00:00 on domain   1:    6.65806 elapsed seconds
 mediation_integrate.G        1242 DATASET=HISTORY
 mediation_integrate.G        1243  grid%id            1  grid%oid            2
Timing for Writing wrfout_d01_2024-08-25_06:00:00 for domain        1:    0.73061 elapsed seconds
d01 2024-08-25_06:00:00 wrf: SUCCESS COMPLETE WRF

rsl.out.0000 result (Native):
Timing for main: time 2024-08-25_05:58:00 on domain   2:    1.27837 elapsed seconds
Timing for main: time 2024-08-25_05:58:30 on domain   2:    1.33942 elapsed seconds
Timing for main: time 2024-08-25_05:58:30 on domain   1:    5.33637 elapsed seconds
Timing for main: time 2024-08-25_05:59:00 on domain   2:    1.15013 elapsed seconds
Timing for main: time 2024-08-25_05:59:30 on domain   2:    1.17815 elapsed seconds
Timing for main: time 2024-08-25_06:00:00 on domain   2:    1.21333 elapsed seconds
Timing for Writing wrfout_d02_2024-08-25_06:00:00 for domain        2:    1.38190 elapsed seconds
Timing for main: time 2024-08-25_06:00:00 on domain   1:    6.65806 elapsed seconds
Timing for Writing wrfout_d01_2024-08-25_06:00:00 for domain        1:    0.73061 elapsed seconds
d01 2024-08-25_06:00:00 wrf: SUCCESS COMPLETE WRF

rsl.error.0001 result (Native):
 mediation_integrate.G        1243  grid%id            2  grid%oid            2
 mediation_integrate.G        1242 DATASET=HISTORY
 mediation_integrate.G        1243  grid%id            1  grid%oid            2
 mediation_integrate.G        1242 DATASET=HISTORY
 mediation_integrate.G        1243  grid%id            2  grid%oid            2
 mediation_integrate.G        1242 DATASET=HISTORY
 mediation_integrate.G        1243  grid%id            2  grid%oid            2
 mediation_integrate.G        1242 DATASET=HISTORY
 mediation_integrate.G        1243  grid%id            1  grid%oid            2
d01 2024-08-25_06:00:00 wrf: SUCCESS COMPLETE WRF

rsl.out.0001 result (Native):
WRF TILE   1 IS      1 IE     74 JS     31 JE     61
WRF NUMBER OF TILES =   1
d01 2024-08-25_00:00:00  ----------------------------------------
d01 2024-08-25_00:00:00  W-DAMPING  BEGINS AT W-COURANT NUMBER =    1.00000000
d01 2024-08-25_00:00:00  ----------------------------------------
 Tile Strategy is not specified. Assuming 1D-Y
WRF TILE   1 IS      1 IE    112 JS     49 JE     97
WRF NUMBER OF TILES =   1
d01 2024-08-25_03:00:00  Input data is acceptable to use:
d01 2024-08-25_06:00:00 wrf: SUCCESS COMPLETE WRF

Present wrfout files (Native):
 6508 -rw-rw-r-- 1 oom oom  6663034 set 16 13:25 wrfout_d01_2024-08-25_00:00:00
 7688 -rw-rw-r-- 1 oom oom  7870953 set 16 13:29 wrfout_d01_2024-08-25_01:00:00
 7772 -rw-rw-r-- 1 oom oom  7956488 set 16 13:33 wrfout_d01_2024-08-25_02:00:00
 7796 -rw-rw-r-- 1 oom oom  7979877 set 16 13:37 wrfout_d01_2024-08-25_03:00:00
 7788 -rw-rw-r-- 1 oom oom  7972246 set 16 13:41 wrfout_d01_2024-08-25_04:00:00
 7772 -rw-rw-r-- 1 oom oom  7957935 set 16 13:45 wrfout_d01_2024-08-25_05:00:00
 7772 -rw-rw-r-- 1 oom oom  7957629 set 16 13:49 wrfout_d01_2024-08-25_06:00:00
12576 -rw-rw-r-- 1 oom oom 12874330 set 16 13:25 wrfout_d02_2024-08-25_00:00:00
15420 -rw-rw-r-- 1 oom oom 15790033 set 16 13:29 wrfout_d02_2024-08-25_01:00:00
15760 -rw-rw-r-- 1 oom oom 16135288 set 16 13:33 wrfout_d02_2024-08-25_02:00:00
15844 -rw-rw-r-- 1 oom oom 16221694 set 16 13:37 wrfout_d02_2024-08-25_03:00:00
15860 -rw-rw-r-- 1 oom oom 16239750 set 16 13:41 wrfout_d02_2024-08-25_04:00:00
15856 -rw-rw-r-- 1 oom oom 16236275 set 16 13:45 wrfout_d02_2024-08-25_05:00:00
15780 -rw-rw-r-- 1 oom oom 16156623 set 16 13:49 wrfout_d02_2024-08-25_06:00:00

Finish (Docker): seg 16 set 2024 13:51:10 WEST

rsl.error.0000 result (Docker):
Timing for main: time 2024-08-25_05:59:30 on domain   2:    0.78711 elapsed seconds
Timing for main: time 2024-08-25_06:00:00 on domain   2:    0.89576 elapsed seconds
 mediation_integrate.G        1242 DATASET=HISTORY
 mediation_integrate.G        1243  grid%id            2  grid%oid            2
Timing for Writing wrfout_d02_2024-08-25_06:00:00 for domain        2:    0.91068 elapsed seconds
Timing for main: time 2024-08-25_06:00:00 on domain   1:    4.20796 elapsed seconds
 mediation_integrate.G        1242 DATASET=HISTORY
 mediation_integrate.G        1243  grid%id            1  grid%oid            2
Timing for Writing wrfout_d01_2024-08-25_06:00:00 for domain        1:    0.56012 elapsed seconds
d01 2024-08-25_06:00:00 wrf: SUCCESS COMPLETE WRF

rsl.out.0000 result (Docker):
Timing for main: time 2024-08-25_05:58:00 on domain   2:    1.02042 elapsed seconds
Timing for main: time 2024-08-25_05:58:30 on domain   2:    0.91982 elapsed seconds
Timing for main: time 2024-08-25_05:58:30 on domain   1:    3.69656 elapsed seconds
Timing for main: time 2024-08-25_05:59:00 on domain   2:    0.77880 elapsed seconds
Timing for main: time 2024-08-25_05:59:30 on domain   2:    0.78711 elapsed seconds
Timing for main: time 2024-08-25_06:00:00 on domain   2:    0.89576 elapsed seconds
Timing for Writing wrfout_d02_2024-08-25_06:00:00 for domain        2:    0.91068 elapsed seconds
Timing for main: time 2024-08-25_06:00:00 on domain   1:    4.20796 elapsed seconds
Timing for Writing wrfout_d01_2024-08-25_06:00:00 for domain        1:    0.56012 elapsed seconds
d01 2024-08-25_06:00:00 wrf: SUCCESS COMPLETE WRF

rsl.error.0001 result (Docker):
 mediation_integrate.G        1243  grid%id            2  grid%oid            2
 mediation_integrate.G        1242 DATASET=HISTORY
 mediation_integrate.G        1243  grid%id            1  grid%oid            2
 mediation_integrate.G        1242 DATASET=HISTORY
 mediation_integrate.G        1243  grid%id            2  grid%oid            2
 mediation_integrate.G        1242 DATASET=HISTORY
 mediation_integrate.G        1243  grid%id            2  grid%oid            2
 mediation_integrate.G        1242 DATASET=HISTORY
 mediation_integrate.G        1243  grid%id            1  grid%oid            2
d01 2024-08-25_06:00:00 wrf: SUCCESS COMPLETE WRF

rsl.out.0001 result (Docker):
WRF TILE   1 IS      1 IE     74 JS     31 JE     61
WRF NUMBER OF TILES =   1
d01 2024-08-25_00:00:00  ----------------------------------------
d01 2024-08-25_00:00:00  W-DAMPING  BEGINS AT W-COURANT NUMBER =    1.00000000
d01 2024-08-25_00:00:00  ----------------------------------------
 Tile Strategy is not specified. Assuming 1D-Y
WRF TILE   1 IS      1 IE    112 JS     49 JE     97
WRF NUMBER OF TILES =   1
d01 2024-08-25_03:00:00  Input data is acceptable to use:
d01 2024-08-25_06:00:00 wrf: SUCCESS COMPLETE WRF

Present wrfout files (Docker):
 6508 -rw-r--r-- 1 swe swe  6663034 Sep 16 12:25 /home/swe/wrf/WRF/WRF/test/em_real/wrfout_d01_2024-08-25_00:00:00
 7688 -rw-r--r-- 1 swe swe  7870953 Sep 16 12:30 /home/swe/wrf/WRF/WRF/test/em_real/wrfout_d01_2024-08-25_01:00:00
 7772 -rw-r--r-- 1 swe swe  7956488 Sep 16 12:34 /home/swe/wrf/WRF/WRF/test/em_real/wrfout_d01_2024-08-25_02:00:00
 7796 -rw-r--r-- 1 swe swe  7979877 Sep 16 12:38 /home/swe/wrf/WRF/WRF/test/em_real/wrfout_d01_2024-08-25_03:00:00
 7788 -rw-r--r-- 1 swe swe  7972246 Sep 16 12:43 /home/swe/wrf/WRF/WRF/test/em_real/wrfout_d01_2024-08-25_04:00:00
 7772 -rw-r--r-- 1 swe swe  7957935 Sep 16 12:47 /home/swe/wrf/WRF/WRF/test/em_real/wrfout_d01_2024-08-25_05:00:00
 7772 -rw-r--r-- 1 swe swe  7957629 Sep 16 12:51 /home/swe/wrf/WRF/WRF/test/em_real/wrfout_d01_2024-08-25_06:00:00
12576 -rw-r--r-- 1 swe swe 12874330 Sep 16 12:25 /home/swe/wrf/WRF/WRF/test/em_real/wrfout_d02_2024-08-25_00:00:00
15420 -rw-r--r-- 1 swe swe 15790033 Sep 16 12:30 /home/swe/wrf/WRF/WRF/test/em_real/wrfout_d02_2024-08-25_01:00:00
15760 -rw-r--r-- 1 swe swe 16135288 Sep 16 12:34 /home/swe/wrf/WRF/WRF/test/em_real/wrfout_d02_2024-08-25_02:00:00
15844 -rw-r--r-- 1 swe swe 16221694 Sep 16 12:38 /home/swe/wrf/WRF/WRF/test/em_real/wrfout_d02_2024-08-25_03:00:00
15860 -rw-r--r-- 1 swe swe 16239750 Sep 16 12:43 /home/swe/wrf/WRF/WRF/test/em_real/wrfout_d02_2024-08-25_04:00:00
15856 -rw-r--r-- 1 swe swe 16236275 Sep 16 12:47 /home/swe/wrf/WRF/WRF/test/em_real/wrfout_d02_2024-08-25_05:00:00
15780 -rw-r--r-- 1 swe swe 16156623 Sep 16 12:51 /home/swe/wrf/WRF/WRF/test/em_real/wrfout_d02_2024-08-25_06:00:00

ubuntu24.04-wrf-gcc
WRF with 2 CPU(s) (Native) and 2 CPU(s) (Docker) finished
WRF with 3 CPU(s) started natively
Start (Native): seg 16 set 2024 13:51:21 WEST
 starting wrf task            0  of            3
 starting wrf task            1  of            3
 starting wrf task            2  of            3
ubuntu24.04-wrf-gcc
WRF with 1 CPU(s) started in Docker
Start (Docker): seg 16 set 2024 13:51:22 WEST
 starting wrf task            0  of            1
