Beginning WRF with 4 cycles in Incrementally mode

WRF with 1 CPU(s) started
Start: Tue Sep 10 08:12:04 AM UTC 2024
 starting wrf task            0  of            1
Finish: Tue Sep 10 08:35:54 AM UTC 2024

rsl.error.0000 result:
Timing for main: time 2024-08-25_05:59:30 on domain   2:    1.24321 elapsed seconds
Timing for main: time 2024-08-25_06:00:00 on domain   2:    1.25173 elapsed seconds
 mediation_integrate.G        1242 DATASET=HISTORY
 mediation_integrate.G        1243  grid%id            2  grid%oid            2
Timing for Writing wrfout_d02_2024-08-25_06:00:00 for domain        2:    0.85256 elapsed seconds
Timing for main: time 2024-08-25_06:00:00 on domain   1:    5.96034 elapsed seconds
 mediation_integrate.G        1242 DATASET=HISTORY
 mediation_integrate.G        1243  grid%id            1  grid%oid            2
Timing for Writing wrfout_d01_2024-08-25_06:00:00 for domain        1:    0.44575 elapsed seconds
d01 2024-08-25_06:00:00 wrf: SUCCESS COMPLETE WRF

rsl.out.0000 result:
Timing for main: time 2024-08-25_05:58:00 on domain   2:    1.24151 elapsed seconds
Timing for main: time 2024-08-25_05:58:30 on domain   2:    1.24222 elapsed seconds
Timing for main: time 2024-08-25_05:58:30 on domain   1:    5.09658 elapsed seconds
Timing for main: time 2024-08-25_05:59:00 on domain   2:    1.23528 elapsed seconds
Timing for main: time 2024-08-25_05:59:30 on domain   2:    1.24321 elapsed seconds
Timing for main: time 2024-08-25_06:00:00 on domain   2:    1.25173 elapsed seconds
Timing for Writing wrfout_d02_2024-08-25_06:00:00 for domain        2:    0.85256 elapsed seconds
Timing for main: time 2024-08-25_06:00:00 on domain   1:    5.96034 elapsed seconds
Timing for Writing wrfout_d01_2024-08-25_06:00:00 for domain        1:    0.44575 elapsed seconds
d01 2024-08-25_06:00:00 wrf: SUCCESS COMPLETE WRF

Present wrfout files:
 6508 -rw-r--r-- 1 swe swe  6663034 Sep 10 08:12 wrfout_d01_2024-08-25_00:00:00
 7688 -rw-r--r-- 1 swe swe  7870953 Sep 10 08:16 wrfout_d01_2024-08-25_01:00:00
 7772 -rw-r--r-- 1 swe swe  7956488 Sep 10 08:19 wrfout_d01_2024-08-25_02:00:00
 7796 -rw-r--r-- 1 swe swe  7979877 Sep 10 08:23 wrfout_d01_2024-08-25_03:00:00
 7788 -rw-r--r-- 1 swe swe  7972246 Sep 10 08:27 wrfout_d01_2024-08-25_04:00:00
 7772 -rw-r--r-- 1 swe swe  7957935 Sep 10 08:31 wrfout_d01_2024-08-25_05:00:00
 7772 -rw-r--r-- 1 swe swe  7957629 Sep 10 08:35 wrfout_d01_2024-08-25_06:00:00
12576 -rw-r--r-- 1 swe swe 12874330 Sep 10 08:12 wrfout_d02_2024-08-25_00:00:00
15420 -rw-r--r-- 1 swe swe 15790033 Sep 10 08:16 wrfout_d02_2024-08-25_01:00:00
15760 -rw-r--r-- 1 swe swe 16135288 Sep 10 08:20 wrfout_d02_2024-08-25_02:00:00
15844 -rw-r--r-- 1 swe swe 16221694 Sep 10 08:24 wrfout_d02_2024-08-25_03:00:00
15860 -rw-r--r-- 1 swe swe 16239750 Sep 10 08:28 wrfout_d02_2024-08-25_04:00:00
15856 -rw-r--r-- 1 swe swe 16236275 Sep 10 08:32 wrfout_d02_2024-08-25_05:00:00
15780 -rw-r--r-- 1 swe swe 16156623 Sep 10 08:35 wrfout_d02_2024-08-25_06:00:00

WRF with 1 CPU(s) finished

WRF with 2 CPU(s) started
Start: Tue Sep 10 08:35:54 AM UTC 2024
 starting wrf task            0  of            2
 starting wrf task            1  of            2
Finish: Tue Sep 10 08:50:02 AM UTC 2024

rsl.error.0000 result:
Timing for main: time 2024-08-25_05:59:30 on domain   2:    0.77318 elapsed seconds
Timing for main: time 2024-08-25_06:00:00 on domain   2:    0.76673 elapsed seconds
 mediation_integrate.G        1242 DATASET=HISTORY
 mediation_integrate.G        1243  grid%id            2  grid%oid            2
Timing for Writing wrfout_d02_2024-08-25_06:00:00 for domain        2:    0.90264 elapsed seconds
Timing for main: time 2024-08-25_06:00:00 on domain   1:    3.98394 elapsed seconds
 mediation_integrate.G        1242 DATASET=HISTORY
 mediation_integrate.G        1243  grid%id            1  grid%oid            2
Timing for Writing wrfout_d01_2024-08-25_06:00:00 for domain        1:    0.47407 elapsed seconds
d01 2024-08-25_06:00:00 wrf: SUCCESS COMPLETE WRF

rsl.out.0000 result:
Timing for main: time 2024-08-25_05:58:00 on domain   2:    0.77295 elapsed seconds
Timing for main: time 2024-08-25_05:58:30 on domain   2:    0.75771 elapsed seconds
Timing for main: time 2024-08-25_05:58:30 on domain   1:    3.07105 elapsed seconds
Timing for main: time 2024-08-25_05:59:00 on domain   2:    0.75621 elapsed seconds
Timing for main: time 2024-08-25_05:59:30 on domain   2:    0.77318 elapsed seconds
Timing for main: time 2024-08-25_06:00:00 on domain   2:    0.76673 elapsed seconds
Timing for Writing wrfout_d02_2024-08-25_06:00:00 for domain        2:    0.90264 elapsed seconds
Timing for main: time 2024-08-25_06:00:00 on domain   1:    3.98394 elapsed seconds
Timing for Writing wrfout_d01_2024-08-25_06:00:00 for domain        1:    0.47407 elapsed seconds
d01 2024-08-25_06:00:00 wrf: SUCCESS COMPLETE WRF

rsl.error.0001 result:
 mediation_integrate.G        1243  grid%id            2  grid%oid            2
 mediation_integrate.G        1242 DATASET=HISTORY
 mediation_integrate.G        1243  grid%id            1  grid%oid            2
 mediation_integrate.G        1242 DATASET=HISTORY
 mediation_integrate.G        1243  grid%id            2  grid%oid            2
 mediation_integrate.G        1242 DATASET=HISTORY
 mediation_integrate.G        1243  grid%id            2  grid%oid            2
 mediation_integrate.G        1242 DATASET=HISTORY
 mediation_integrate.G        1243  grid%id            1  grid%oid            2
d01 2024-08-25_06:00:00 wrf: SUCCESS COMPLETE WRF

rsl.out.0001 result:
WRF TILE   1 IS      1 IE     74 JS     31 JE     61
WRF NUMBER OF TILES =   1
d01 2024-08-25_00:00:00  ----------------------------------------
d01 2024-08-25_00:00:00  W-DAMPING  BEGINS AT W-COURANT NUMBER =    1.00000000
d01 2024-08-25_00:00:00  ----------------------------------------
 Tile Strategy is not specified. Assuming 1D-Y
WRF TILE   1 IS      1 IE    112 JS     49 JE     97
WRF NUMBER OF TILES =   1
d01 2024-08-25_03:00:00  Input data is acceptable to use:
d01 2024-08-25_06:00:00 wrf: SUCCESS COMPLETE WRF

Present wrfout files:
 6508 -rw-r--r-- 1 swe swe  6663034 Sep 10 08:35 wrfout_d01_2024-08-25_00:00:00
 7688 -rw-r--r-- 1 swe swe  7870953 Sep 10 08:38 wrfout_d01_2024-08-25_01:00:00
 7772 -rw-r--r-- 1 swe swe  7956488 Sep 10 08:40 wrfout_d01_2024-08-25_02:00:00
 7796 -rw-r--r-- 1 swe swe  7979877 Sep 10 08:42 wrfout_d01_2024-08-25_03:00:00
 7788 -rw-r--r-- 1 swe swe  7972246 Sep 10 08:45 wrfout_d01_2024-08-25_04:00:00
 7772 -rw-r--r-- 1 swe swe  7957935 Sep 10 08:47 wrfout_d01_2024-08-25_05:00:00
 7772 -rw-r--r-- 1 swe swe  7957629 Sep 10 08:50 wrfout_d01_2024-08-25_06:00:00
12576 -rw-r--r-- 1 swe swe 12874330 Sep 10 08:36 wrfout_d02_2024-08-25_00:00:00
15420 -rw-r--r-- 1 swe swe 15790033 Sep 10 08:38 wrfout_d02_2024-08-25_01:00:00
15760 -rw-r--r-- 1 swe swe 16135288 Sep 10 08:40 wrfout_d02_2024-08-25_02:00:00
15844 -rw-r--r-- 1 swe swe 16221694 Sep 10 08:43 wrfout_d02_2024-08-25_03:00:00
15860 -rw-r--r-- 1 swe swe 16239750 Sep 10 08:45 wrfout_d02_2024-08-25_04:00:00
15856 -rw-r--r-- 1 swe swe 16236275 Sep 10 08:47 wrfout_d02_2024-08-25_05:00:00
15780 -rw-r--r-- 1 swe swe 16156623 Sep 10 08:50 wrfout_d02_2024-08-25_06:00:00

WRF with 2 CPU(s) finished

WRF with 3 CPU(s) started
Start: Tue Sep 10 08:50:02 AM UTC 2024
 starting wrf task            0  of            3
 starting wrf task            1  of            3
 starting wrf task            2  of            3
Finish: Tue Sep 10 09:05:25 AM UTC 2024

rsl.error.0000 result:
Timing for main: time 2024-08-25_05:59:30 on domain   2:    0.78786 elapsed seconds
Timing for main: time 2024-08-25_06:00:00 on domain   2:    0.78692 elapsed seconds
 mediation_integrate.G        1242 DATASET=HISTORY
 mediation_integrate.G        1243  grid%id            2  grid%oid            2
Timing for Writing wrfout_d02_2024-08-25_06:00:00 for domain        2:    1.31957 elapsed seconds
Timing for main: time 2024-08-25_06:00:00 on domain   1:    4.65928 elapsed seconds
 mediation_integrate.G        1242 DATASET=HISTORY
 mediation_integrate.G        1243  grid%id            1  grid%oid            2
Timing for Writing wrfout_d01_2024-08-25_06:00:00 for domain        1:    0.69021 elapsed seconds
d01 2024-08-25_06:00:00 wrf: SUCCESS COMPLETE WRF

rsl.out.0000 result:
Timing for main: time 2024-08-25_05:58:00 on domain   2:    0.79146 elapsed seconds
Timing for main: time 2024-08-25_05:58:30 on domain   2:    0.78472 elapsed seconds
Timing for main: time 2024-08-25_05:58:30 on domain   1:    3.34093 elapsed seconds
Timing for main: time 2024-08-25_05:59:00 on domain   2:    0.78825 elapsed seconds
Timing for main: time 2024-08-25_05:59:30 on domain   2:    0.78786 elapsed seconds
Timing for main: time 2024-08-25_06:00:00 on domain   2:    0.78692 elapsed seconds
Timing for Writing wrfout_d02_2024-08-25_06:00:00 for domain        2:    1.31957 elapsed seconds
Timing for main: time 2024-08-25_06:00:00 on domain   1:    4.65928 elapsed seconds
Timing for Writing wrfout_d01_2024-08-25_06:00:00 for domain        1:    0.69021 elapsed seconds
d01 2024-08-25_06:00:00 wrf: SUCCESS COMPLETE WRF

rsl.error.0001 result:
 mediation_integrate.G        1243  grid%id            2  grid%oid            2
 mediation_integrate.G        1242 DATASET=HISTORY
 mediation_integrate.G        1243  grid%id            1  grid%oid            2
 mediation_integrate.G        1242 DATASET=HISTORY
 mediation_integrate.G        1243  grid%id            2  grid%oid            2
 mediation_integrate.G        1242 DATASET=HISTORY
 mediation_integrate.G        1243  grid%id            2  grid%oid            2
 mediation_integrate.G        1242 DATASET=HISTORY
 mediation_integrate.G        1243  grid%id            1  grid%oid            2
d01 2024-08-25_06:00:00 wrf: SUCCESS COMPLETE WRF

rsl.out.0001 result:
WRF TILE   1 IS      1 IE     74 JS     21 JE     40
WRF NUMBER OF TILES =   1
d01 2024-08-25_00:00:00  ----------------------------------------
d01 2024-08-25_00:00:00  W-DAMPING  BEGINS AT W-COURANT NUMBER =    1.00000000
d01 2024-08-25_00:00:00  ----------------------------------------
 Tile Strategy is not specified. Assuming 1D-Y
WRF TILE   1 IS      1 IE    112 JS     33 JE     64
WRF NUMBER OF TILES =   1
d01 2024-08-25_03:00:00  Input data is acceptable to use:
d01 2024-08-25_06:00:00 wrf: SUCCESS COMPLETE WRF

rsl.error.0002 result:
 mediation_integrate.G        1243  grid%id            2  grid%oid            2
 mediation_integrate.G        1242 DATASET=HISTORY
 mediation_integrate.G        1243  grid%id            1  grid%oid            2
 mediation_integrate.G        1242 DATASET=HISTORY
 mediation_integrate.G        1243  grid%id            2  grid%oid            2
 mediation_integrate.G        1242 DATASET=HISTORY
 mediation_integrate.G        1243  grid%id            2  grid%oid            2
 mediation_integrate.G        1242 DATASET=HISTORY
 mediation_integrate.G        1243  grid%id            1  grid%oid            2
d01 2024-08-25_06:00:00 wrf: SUCCESS COMPLETE WRF

rsl.out.0002 result:
WRF TILE   1 IS      1 IE     74 JS     41 JE     61
WRF NUMBER OF TILES =   1
d01 2024-08-25_00:00:00  ----------------------------------------
d01 2024-08-25_00:00:00  W-DAMPING  BEGINS AT W-COURANT NUMBER =    1.00000000
d01 2024-08-25_00:00:00  ----------------------------------------
 Tile Strategy is not specified. Assuming 1D-Y
WRF TILE   1 IS      1 IE    112 JS     65 JE     97
WRF NUMBER OF TILES =   1
d01 2024-08-25_03:00:00  Input data is acceptable to use:
d01 2024-08-25_06:00:00 wrf: SUCCESS COMPLETE WRF

Present wrfout files:
 6508 -rw-r--r-- 1 swe swe  6663034 Sep 10 08:50 wrfout_d01_2024-08-25_00:00:00
 7688 -rw-r--r-- 1 swe swe  7870953 Sep 10 08:52 wrfout_d01_2024-08-25_01:00:00
 7772 -rw-r--r-- 1 swe swe  7956488 Sep 10 08:55 wrfout_d01_2024-08-25_02:00:00
 7796 -rw-r--r-- 1 swe swe  7979877 Sep 10 08:57 wrfout_d01_2024-08-25_03:00:00
 7788 -rw-r--r-- 1 swe swe  7972246 Sep 10 09:00 wrfout_d01_2024-08-25_04:00:00
 7772 -rw-r--r-- 1 swe swe  7957935 Sep 10 09:02 wrfout_d01_2024-08-25_05:00:00
 7772 -rw-r--r-- 1 swe swe  7957629 Sep 10 09:05 wrfout_d01_2024-08-25_06:00:00
12576 -rw-r--r-- 1 swe swe 12874330 Sep 10 08:50 wrfout_d02_2024-08-25_00:00:00
15420 -rw-r--r-- 1 swe swe 15790033 Sep 10 08:52 wrfout_d02_2024-08-25_01:00:00
15760 -rw-r--r-- 1 swe swe 16135288 Sep 10 08:55 wrfout_d02_2024-08-25_02:00:00
15844 -rw-r--r-- 1 swe swe 16221694 Sep 10 08:57 wrfout_d02_2024-08-25_03:00:00
15860 -rw-r--r-- 1 swe swe 16239750 Sep 10 09:00 wrfout_d02_2024-08-25_04:00:00
15856 -rw-r--r-- 1 swe swe 16236275 Sep 10 09:02 wrfout_d02_2024-08-25_05:00:00
15780 -rw-r--r-- 1 swe swe 16156623 Sep 10 09:05 wrfout_d02_2024-08-25_06:00:00

WRF with 3 CPU(s) finished

WRF with 4 CPU(s) started
Start: Tue Sep 10 09:05:25 AM UTC 2024
 starting wrf task            0  of            4
 starting wrf task            1  of            4
 starting wrf task            2  of            4
 starting wrf task            3  of            4
Finish: Tue Sep 10 09:20:31 AM UTC 2024

rsl.error.0000 result:
Timing for main: time 2024-08-25_05:59:30 on domain   2:    0.79592 elapsed seconds
Timing for main: time 2024-08-25_06:00:00 on domain   2:    0.80567 elapsed seconds
 mediation_integrate.G        1242 DATASET=HISTORY
 mediation_integrate.G        1243  grid%id            2  grid%oid            2
Timing for Writing wrfout_d02_2024-08-25_06:00:00 for domain        2:    1.34283 elapsed seconds
Timing for main: time 2024-08-25_06:00:00 on domain   1:    4.65854 elapsed seconds
 mediation_integrate.G        1242 DATASET=HISTORY
 mediation_integrate.G        1243  grid%id            1  grid%oid            2
Timing for Writing wrfout_d01_2024-08-25_06:00:00 for domain        1:    0.72764 elapsed seconds
d01 2024-08-25_06:00:00 wrf: SUCCESS COMPLETE WRF

rsl.out.0000 result:
Timing for main: time 2024-08-25_05:58:00 on domain   2:    0.80340 elapsed seconds
Timing for main: time 2024-08-25_05:58:30 on domain   2:    0.79866 elapsed seconds
Timing for main: time 2024-08-25_05:58:30 on domain   1:    3.31827 elapsed seconds
Timing for main: time 2024-08-25_05:59:00 on domain   2:    0.81914 elapsed seconds
Timing for main: time 2024-08-25_05:59:30 on domain   2:    0.79592 elapsed seconds
Timing for main: time 2024-08-25_06:00:00 on domain   2:    0.80567 elapsed seconds
Timing for Writing wrfout_d02_2024-08-25_06:00:00 for domain        2:    1.34283 elapsed seconds
Timing for main: time 2024-08-25_06:00:00 on domain   1:    4.65854 elapsed seconds
Timing for Writing wrfout_d01_2024-08-25_06:00:00 for domain        1:    0.72764 elapsed seconds
d01 2024-08-25_06:00:00 wrf: SUCCESS COMPLETE WRF

rsl.error.0001 result:
 mediation_integrate.G        1243  grid%id            2  grid%oid            2
 mediation_integrate.G        1242 DATASET=HISTORY
 mediation_integrate.G        1243  grid%id            1  grid%oid            2
 mediation_integrate.G        1242 DATASET=HISTORY
 mediation_integrate.G        1243  grid%id            2  grid%oid            2
 mediation_integrate.G        1242 DATASET=HISTORY
 mediation_integrate.G        1243  grid%id            2  grid%oid            2
 mediation_integrate.G        1242 DATASET=HISTORY
 mediation_integrate.G        1243  grid%id            1  grid%oid            2
d01 2024-08-25_06:00:00 wrf: SUCCESS COMPLETE WRF

rsl.out.0001 result:
WRF TILE   1 IS     38 IE     74 JS      1 JE     30
WRF NUMBER OF TILES =   1
d01 2024-08-25_00:00:00  ----------------------------------------
d01 2024-08-25_00:00:00  W-DAMPING  BEGINS AT W-COURANT NUMBER =    1.00000000
d01 2024-08-25_00:00:00  ----------------------------------------
 Tile Strategy is not specified. Assuming 1D-Y
WRF TILE   1 IS     57 IE    112 JS      1 JE     48
WRF NUMBER OF TILES =   1
d01 2024-08-25_03:00:00  Input data is acceptable to use:
d01 2024-08-25_06:00:00 wrf: SUCCESS COMPLETE WRF

rsl.error.0002 result:
 mediation_integrate.G        1243  grid%id            2  grid%oid            2
 mediation_integrate.G        1242 DATASET=HISTORY
 mediation_integrate.G        1243  grid%id            1  grid%oid            2
 mediation_integrate.G        1242 DATASET=HISTORY
 mediation_integrate.G        1243  grid%id            2  grid%oid            2
 mediation_integrate.G        1242 DATASET=HISTORY
 mediation_integrate.G        1243  grid%id            2  grid%oid            2
 mediation_integrate.G        1242 DATASET=HISTORY
 mediation_integrate.G        1243  grid%id            1  grid%oid            2
d01 2024-08-25_06:00:00 wrf: SUCCESS COMPLETE WRF

rsl.out.0002 result:
WRF TILE   1 IS      1 IE     37 JS     31 JE     61
WRF NUMBER OF TILES =   1
d01 2024-08-25_00:00:00  ----------------------------------------
d01 2024-08-25_00:00:00  W-DAMPING  BEGINS AT W-COURANT NUMBER =    1.00000000
d01 2024-08-25_00:00:00  ----------------------------------------
 Tile Strategy is not specified. Assuming 1D-Y
WRF TILE   1 IS      1 IE     56 JS     49 JE     97
WRF NUMBER OF TILES =   1
d01 2024-08-25_03:00:00  Input data is acceptable to use:
d01 2024-08-25_06:00:00 wrf: SUCCESS COMPLETE WRF

rsl.error.0003 result:
 mediation_integrate.G        1243  grid%id            2  grid%oid            2
 mediation_integrate.G        1242 DATASET=HISTORY
 mediation_integrate.G        1243  grid%id            1  grid%oid            2
 mediation_integrate.G        1242 DATASET=HISTORY
 mediation_integrate.G        1243  grid%id            2  grid%oid            2
 mediation_integrate.G        1242 DATASET=HISTORY
 mediation_integrate.G        1243  grid%id            2  grid%oid            2
 mediation_integrate.G        1242 DATASET=HISTORY
 mediation_integrate.G        1243  grid%id            1  grid%oid            2
d01 2024-08-25_06:00:00 wrf: SUCCESS COMPLETE WRF

rsl.out.0003 result:
WRF TILE   1 IS     38 IE     74 JS     31 JE     61
WRF NUMBER OF TILES =   1
d01 2024-08-25_00:00:00  ----------------------------------------
d01 2024-08-25_00:00:00  W-DAMPING  BEGINS AT W-COURANT NUMBER =    1.00000000
d01 2024-08-25_00:00:00  ----------------------------------------
 Tile Strategy is not specified. Assuming 1D-Y
WRF TILE   1 IS     57 IE    112 JS     49 JE     97
WRF NUMBER OF TILES =   1
d01 2024-08-25_03:00:00  Input data is acceptable to use:
d01 2024-08-25_06:00:00 wrf: SUCCESS COMPLETE WRF

Present wrfout files:
 6508 -rw-r--r-- 1 swe swe  6663034 Sep 10 09:05 wrfout_d01_2024-08-25_00:00:00
 7688 -rw-r--r-- 1 swe swe  7870119 Sep 10 09:07 wrfout_d01_2024-08-25_01:00:00
 7772 -rw-r--r-- 1 swe swe  7956823 Sep 10 09:10 wrfout_d01_2024-08-25_02:00:00
 7796 -rw-r--r-- 1 swe swe  7979627 Sep 10 09:12 wrfout_d01_2024-08-25_03:00:00
 7788 -rw-r--r-- 1 swe swe  7972793 Sep 10 09:15 wrfout_d01_2024-08-25_04:00:00
 7776 -rw-r--r-- 1 swe swe  7958606 Sep 10 09:17 wrfout_d01_2024-08-25_05:00:00
 7772 -rw-r--r-- 1 swe swe  7957747 Sep 10 09:20 wrfout_d01_2024-08-25_06:00:00
12576 -rw-r--r-- 1 swe swe 12874330 Sep 10 09:05 wrfout_d02_2024-08-25_00:00:00
15420 -rw-r--r-- 1 swe swe 15788135 Sep 10 09:07 wrfout_d02_2024-08-25_01:00:00
15760 -rw-r--r-- 1 swe swe 16135353 Sep 10 09:10 wrfout_d02_2024-08-25_02:00:00
15844 -rw-r--r-- 1 swe swe 16223178 Sep 10 09:13 wrfout_d02_2024-08-25_03:00:00
15860 -rw-r--r-- 1 swe swe 16238196 Sep 10 09:15 wrfout_d02_2024-08-25_04:00:00
15860 -rw-r--r-- 1 swe swe 16240029 Sep 10 09:18 wrfout_d02_2024-08-25_05:00:00
15784 -rw-r--r-- 1 swe swe 16161613 Sep 10 09:20 wrfout_d02_2024-08-25_06:00:00

WRF with 4 CPU(s) finished
