Beginning WRF with 4 cycles in Incrementally mode

WRF with 1 CPU(s) started
Start: seg 09 set 2024 09:25:49 WEST
 starting wrf task            0  of            1
Finish: seg 09 set 2024 09:49:02 WEST

rsl.error.0000 result:
Timing for main: time 2024-08-25_05:59:30 on domain   2:    1.23910 elapsed seconds
Timing for main: time 2024-08-25_06:00:00 on domain   2:    1.21845 elapsed seconds
 mediation_integrate.G        1242 DATASET=HISTORY
 mediation_integrate.G        1243  grid%id            2  grid%oid            2
Timing for Writing wrfout_d02_2024-08-25_06:00:00 for domain        2:    0.84263 elapsed seconds
Timing for main: time 2024-08-25_06:00:00 on domain   1:    6.06860 elapsed seconds
 mediation_integrate.G        1242 DATASET=HISTORY
 mediation_integrate.G        1243  grid%id            1  grid%oid            2
Timing for Writing wrfout_d01_2024-08-25_06:00:00 for domain        1:    0.44414 elapsed seconds
d01 2024-08-25_06:00:00 wrf: SUCCESS COMPLETE WRF

rsl.out.0000 result:
Timing for main: time 2024-08-25_05:58:00 on domain   2:    1.20618 elapsed seconds
Timing for main: time 2024-08-25_05:58:30 on domain   2:    1.20954 elapsed seconds
Timing for main: time 2024-08-25_05:58:30 on domain   1:    4.99324 elapsed seconds
Timing for main: time 2024-08-25_05:59:00 on domain   2:    1.34022 elapsed seconds
Timing for main: time 2024-08-25_05:59:30 on domain   2:    1.23910 elapsed seconds
Timing for main: time 2024-08-25_06:00:00 on domain   2:    1.21845 elapsed seconds
Timing for Writing wrfout_d02_2024-08-25_06:00:00 for domain        2:    0.84263 elapsed seconds
Timing for main: time 2024-08-25_06:00:00 on domain   1:    6.06860 elapsed seconds
Timing for Writing wrfout_d01_2024-08-25_06:00:00 for domain        1:    0.44414 elapsed seconds
d01 2024-08-25_06:00:00 wrf: SUCCESS COMPLETE WRF

Present wrfout files:
 6508 -rw-rw-r-- 1 oom oom  6663034 set  9 09:25 wrfout_d01_2024-08-25_00:00:00
 7688 -rw-rw-r-- 1 oom oom  7870953 set  9 09:29 wrfout_d01_2024-08-25_01:00:00
 7772 -rw-rw-r-- 1 oom oom  7956488 set  9 09:33 wrfout_d01_2024-08-25_02:00:00
 7796 -rw-rw-r-- 1 oom oom  7979877 set  9 09:37 wrfout_d01_2024-08-25_03:00:00
 7788 -rw-rw-r-- 1 oom oom  7972246 set  9 09:41 wrfout_d01_2024-08-25_04:00:00
 7772 -rw-rw-r-- 1 oom oom  7957935 set  9 09:45 wrfout_d01_2024-08-25_05:00:00
 7772 -rw-rw-r-- 1 oom oom  7957629 set  9 09:49 wrfout_d01_2024-08-25_06:00:00
12576 -rw-rw-r-- 1 oom oom 12874330 set  9 09:26 wrfout_d02_2024-08-25_00:00:00
15420 -rw-rw-r-- 1 oom oom 15790033 set  9 09:29 wrfout_d02_2024-08-25_01:00:00
15760 -rw-rw-r-- 1 oom oom 16135288 set  9 09:33 wrfout_d02_2024-08-25_02:00:00
15844 -rw-rw-r-- 1 oom oom 16221694 set  9 09:37 wrfout_d02_2024-08-25_03:00:00
15860 -rw-rw-r-- 1 oom oom 16239750 set  9 09:41 wrfout_d02_2024-08-25_04:00:00
15856 -rw-rw-r-- 1 oom oom 16236275 set  9 09:45 wrfout_d02_2024-08-25_05:00:00
15780 -rw-rw-r-- 1 oom oom 16156623 set  9 09:49 wrfout_d02_2024-08-25_06:00:00

WRF with 1 CPU(s) finished

WRF with 2 CPU(s) started
Start: seg 09 set 2024 09:49:02 WEST
 starting wrf task            0  of            2
 starting wrf task            1  of            2
Finish: seg 09 set 2024 10:02:48 WEST

rsl.error.0000 result:
Timing for main: time 2024-08-25_05:59:30 on domain   2:    0.73812 elapsed seconds
Timing for main: time 2024-08-25_06:00:00 on domain   2:    0.74589 elapsed seconds
 mediation_integrate.G        1242 DATASET=HISTORY
 mediation_integrate.G        1243  grid%id            2  grid%oid            2
Timing for Writing wrfout_d02_2024-08-25_06:00:00 for domain        2:    0.89186 elapsed seconds
Timing for main: time 2024-08-25_06:00:00 on domain   1:    3.88753 elapsed seconds
 mediation_integrate.G        1242 DATASET=HISTORY
 mediation_integrate.G        1243  grid%id            1  grid%oid            2
Timing for Writing wrfout_d01_2024-08-25_06:00:00 for domain        1:    0.46527 elapsed seconds
d01 2024-08-25_06:00:00 wrf: SUCCESS COMPLETE WRF

rsl.out.0000 result:
Timing for main: time 2024-08-25_05:58:00 on domain   2:    0.74199 elapsed seconds
Timing for main: time 2024-08-25_05:58:30 on domain   2:    0.74459 elapsed seconds
Timing for main: time 2024-08-25_05:58:30 on domain   1:    2.99783 elapsed seconds
Timing for main: time 2024-08-25_05:59:00 on domain   2:    0.73879 elapsed seconds
Timing for main: time 2024-08-25_05:59:30 on domain   2:    0.73812 elapsed seconds
Timing for main: time 2024-08-25_06:00:00 on domain   2:    0.74589 elapsed seconds
Timing for Writing wrfout_d02_2024-08-25_06:00:00 for domain        2:    0.89186 elapsed seconds
Timing for main: time 2024-08-25_06:00:00 on domain   1:    3.88753 elapsed seconds
Timing for Writing wrfout_d01_2024-08-25_06:00:00 for domain        1:    0.46527 elapsed seconds
d01 2024-08-25_06:00:00 wrf: SUCCESS COMPLETE WRF

rsl.error.0001 result:
 mediation_integrate.G        1243  grid%id            2  grid%oid            2
 mediation_integrate.G        1242 DATASET=HISTORY
 mediation_integrate.G        1243  grid%id            1  grid%oid            2
 mediation_integrate.G        1242 DATASET=HISTORY
 mediation_integrate.G        1243  grid%id            2  grid%oid            2
 mediation_integrate.G        1242 DATASET=HISTORY
 mediation_integrate.G        1243  grid%id            2  grid%oid            2
 mediation_integrate.G        1242 DATASET=HISTORY
 mediation_integrate.G        1243  grid%id            1  grid%oid            2
d01 2024-08-25_06:00:00 wrf: SUCCESS COMPLETE WRF

rsl.out.0001 result:
WRF TILE   1 IS      1 IE     74 JS     31 JE     61
WRF NUMBER OF TILES =   1
d01 2024-08-25_00:00:00  ----------------------------------------
d01 2024-08-25_00:00:00  W-DAMPING  BEGINS AT W-COURANT NUMBER =    1.00000000
d01 2024-08-25_00:00:00  ----------------------------------------
 Tile Strategy is not specified. Assuming 1D-Y
WRF TILE   1 IS      1 IE    112 JS     49 JE     97
WRF NUMBER OF TILES =   1
d01 2024-08-25_03:00:00  Input data is acceptable to use:
d01 2024-08-25_06:00:00 wrf: SUCCESS COMPLETE WRF

Present wrfout files:
 6508 -rw-rw-r-- 1 oom oom  6663034 set  9 09:49 wrfout_d01_2024-08-25_00:00:00
 7688 -rw-rw-r-- 1 oom oom  7870953 set  9 09:51 wrfout_d01_2024-08-25_01:00:00
 7772 -rw-rw-r-- 1 oom oom  7956488 set  9 09:53 wrfout_d01_2024-08-25_02:00:00
 7796 -rw-rw-r-- 1 oom oom  7979877 set  9 09:55 wrfout_d01_2024-08-25_03:00:00
 7788 -rw-rw-r-- 1 oom oom  7972246 set  9 09:58 wrfout_d01_2024-08-25_04:00:00
 7772 -rw-rw-r-- 1 oom oom  7957935 set  9 10:00 wrfout_d01_2024-08-25_05:00:00
 7772 -rw-rw-r-- 1 oom oom  7957629 set  9 10:02 wrfout_d01_2024-08-25_06:00:00
12576 -rw-rw-r-- 1 oom oom 12874330 set  9 09:49 wrfout_d02_2024-08-25_00:00:00
15420 -rw-rw-r-- 1 oom oom 15790033 set  9 09:51 wrfout_d02_2024-08-25_01:00:00
15760 -rw-rw-r-- 1 oom oom 16135288 set  9 09:53 wrfout_d02_2024-08-25_02:00:00
15844 -rw-rw-r-- 1 oom oom 16221694 set  9 09:55 wrfout_d02_2024-08-25_03:00:00
15860 -rw-rw-r-- 1 oom oom 16239750 set  9 09:58 wrfout_d02_2024-08-25_04:00:00
15856 -rw-rw-r-- 1 oom oom 16236275 set  9 10:00 wrfout_d02_2024-08-25_05:00:00
15780 -rw-rw-r-- 1 oom oom 16156623 set  9 10:02 wrfout_d02_2024-08-25_06:00:00

WRF with 2 CPU(s) finished

WRF with 3 CPU(s) started
Start: seg 09 set 2024 10:02:48 WEST
 starting wrf task            2  of            3
 starting wrf task            1  of            3
 starting wrf task            0  of            3
Finish: seg 09 set 2024 10:17:49 WEST

rsl.error.0000 result:
Timing for main: time 2024-08-25_05:59:30 on domain   2:    0.76514 elapsed seconds
Timing for main: time 2024-08-25_06:00:00 on domain   2:    0.76385 elapsed seconds
 mediation_integrate.G        1242 DATASET=HISTORY
 mediation_integrate.G        1243  grid%id            2  grid%oid            2
Timing for Writing wrfout_d02_2024-08-25_06:00:00 for domain        2:    1.28991 elapsed seconds
Timing for main: time 2024-08-25_06:00:00 on domain   1:    4.54287 elapsed seconds
 mediation_integrate.G        1242 DATASET=HISTORY
 mediation_integrate.G        1243  grid%id            1  grid%oid            2
Timing for Writing wrfout_d01_2024-08-25_06:00:00 for domain        1:    0.66522 elapsed seconds
d01 2024-08-25_06:00:00 wrf: SUCCESS COMPLETE WRF

rsl.out.0000 result:
Timing for main: time 2024-08-25_05:58:00 on domain   2:    0.76613 elapsed seconds
Timing for main: time 2024-08-25_05:58:30 on domain   2:    0.76967 elapsed seconds
Timing for main: time 2024-08-25_05:58:30 on domain   1:    3.25904 elapsed seconds
Timing for main: time 2024-08-25_05:59:00 on domain   2:    0.76631 elapsed seconds
Timing for main: time 2024-08-25_05:59:30 on domain   2:    0.76514 elapsed seconds
Timing for main: time 2024-08-25_06:00:00 on domain   2:    0.76385 elapsed seconds
Timing for Writing wrfout_d02_2024-08-25_06:00:00 for domain        2:    1.28991 elapsed seconds
Timing for main: time 2024-08-25_06:00:00 on domain   1:    4.54287 elapsed seconds
Timing for Writing wrfout_d01_2024-08-25_06:00:00 for domain        1:    0.66522 elapsed seconds
d01 2024-08-25_06:00:00 wrf: SUCCESS COMPLETE WRF

rsl.error.0001 result:
 mediation_integrate.G        1243  grid%id            2  grid%oid            2
 mediation_integrate.G        1242 DATASET=HISTORY
 mediation_integrate.G        1243  grid%id            1  grid%oid            2
 mediation_integrate.G        1242 DATASET=HISTORY
 mediation_integrate.G        1243  grid%id            2  grid%oid            2
 mediation_integrate.G        1242 DATASET=HISTORY
 mediation_integrate.G        1243  grid%id            2  grid%oid            2
 mediation_integrate.G        1242 DATASET=HISTORY
 mediation_integrate.G        1243  grid%id            1  grid%oid            2
d01 2024-08-25_06:00:00 wrf: SUCCESS COMPLETE WRF

rsl.out.0001 result:
WRF TILE   1 IS      1 IE     74 JS     21 JE     40
WRF NUMBER OF TILES =   1
d01 2024-08-25_00:00:00  ----------------------------------------
d01 2024-08-25_00:00:00  W-DAMPING  BEGINS AT W-COURANT NUMBER =    1.00000000
d01 2024-08-25_00:00:00  ----------------------------------------
 Tile Strategy is not specified. Assuming 1D-Y
WRF TILE   1 IS      1 IE    112 JS     33 JE     64
WRF NUMBER OF TILES =   1
d01 2024-08-25_03:00:00  Input data is acceptable to use:
d01 2024-08-25_06:00:00 wrf: SUCCESS COMPLETE WRF

rsl.error.0002 result:
 mediation_integrate.G        1243  grid%id            2  grid%oid            2
 mediation_integrate.G        1242 DATASET=HISTORY
 mediation_integrate.G        1243  grid%id            1  grid%oid            2
 mediation_integrate.G        1242 DATASET=HISTORY
 mediation_integrate.G        1243  grid%id            2  grid%oid            2
 mediation_integrate.G        1242 DATASET=HISTORY
 mediation_integrate.G        1243  grid%id            2  grid%oid            2
 mediation_integrate.G        1242 DATASET=HISTORY
 mediation_integrate.G        1243  grid%id            1  grid%oid            2
d01 2024-08-25_06:00:00 wrf: SUCCESS COMPLETE WRF

rsl.out.0002 result:
WRF TILE   1 IS      1 IE     74 JS     41 JE     61
WRF NUMBER OF TILES =   1
d01 2024-08-25_00:00:00  ----------------------------------------
d01 2024-08-25_00:00:00  W-DAMPING  BEGINS AT W-COURANT NUMBER =    1.00000000
d01 2024-08-25_00:00:00  ----------------------------------------
 Tile Strategy is not specified. Assuming 1D-Y
WRF TILE   1 IS      1 IE    112 JS     65 JE     97
WRF NUMBER OF TILES =   1
d01 2024-08-25_03:00:00  Input data is acceptable to use:
d01 2024-08-25_06:00:00 wrf: SUCCESS COMPLETE WRF

Present wrfout files:
 6508 -rw-rw-r-- 1 oom oom  6663034 set  9 10:02 wrfout_d01_2024-08-25_00:00:00
 7688 -rw-rw-r-- 1 oom oom  7870953 set  9 10:05 wrfout_d01_2024-08-25_01:00:00
 7772 -rw-rw-r-- 1 oom oom  7956488 set  9 10:07 wrfout_d01_2024-08-25_02:00:00
 7796 -rw-rw-r-- 1 oom oom  7979877 set  9 10:10 wrfout_d01_2024-08-25_03:00:00
 7788 -rw-rw-r-- 1 oom oom  7972246 set  9 10:12 wrfout_d01_2024-08-25_04:00:00
 7772 -rw-rw-r-- 1 oom oom  7957935 set  9 10:15 wrfout_d01_2024-08-25_05:00:00
 7772 -rw-rw-r-- 1 oom oom  7957629 set  9 10:17 wrfout_d01_2024-08-25_06:00:00
12576 -rw-rw-r-- 1 oom oom 12874330 set  9 10:02 wrfout_d02_2024-08-25_00:00:00
15420 -rw-rw-r-- 1 oom oom 15790033 set  9 10:05 wrfout_d02_2024-08-25_01:00:00
15760 -rw-rw-r-- 1 oom oom 16135288 set  9 10:07 wrfout_d02_2024-08-25_02:00:00
15844 -rw-rw-r-- 1 oom oom 16221694 set  9 10:10 wrfout_d02_2024-08-25_03:00:00
15860 -rw-rw-r-- 1 oom oom 16239750 set  9 10:12 wrfout_d02_2024-08-25_04:00:00
15856 -rw-rw-r-- 1 oom oom 16236275 set  9 10:15 wrfout_d02_2024-08-25_05:00:00
15780 -rw-rw-r-- 1 oom oom 16156623 set  9 10:17 wrfout_d02_2024-08-25_06:00:00

WRF with 3 CPU(s) finished

WRF with 4 CPU(s) started
Start: seg 09 set 2024 10:17:49 WEST
 starting wrf task            0  of            4
 starting wrf task            1  of            4
 starting wrf task            2  of            4
 starting wrf task            3  of            4
Finish: seg 09 set 2024 10:32:24 WEST

rsl.error.0000 result:
Timing for main: time 2024-08-25_05:59:30 on domain   2:    0.78549 elapsed seconds
Timing for main: time 2024-08-25_06:00:00 on domain   2:    0.78265 elapsed seconds
 mediation_integrate.G        1242 DATASET=HISTORY
 mediation_integrate.G        1243  grid%id            2  grid%oid            2
Timing for Writing wrfout_d02_2024-08-25_06:00:00 for domain        2:    1.30517 elapsed seconds
Timing for main: time 2024-08-25_06:00:00 on domain   1:    4.59670 elapsed seconds
 mediation_integrate.G        1242 DATASET=HISTORY
 mediation_integrate.G        1243  grid%id            1  grid%oid            2
Timing for Writing wrfout_d01_2024-08-25_06:00:00 for domain        1:    0.66982 elapsed seconds
d01 2024-08-25_06:00:00 wrf: SUCCESS COMPLETE WRF

rsl.out.0000 result:
Timing for main: time 2024-08-25_05:58:00 on domain   2:    0.78683 elapsed seconds
Timing for main: time 2024-08-25_05:58:30 on domain   2:    0.78495 elapsed seconds
Timing for main: time 2024-08-25_05:58:30 on domain   1:    3.23840 elapsed seconds
Timing for main: time 2024-08-25_05:59:00 on domain   2:    0.85062 elapsed seconds
Timing for main: time 2024-08-25_05:59:30 on domain   2:    0.78549 elapsed seconds
Timing for main: time 2024-08-25_06:00:00 on domain   2:    0.78265 elapsed seconds
Timing for Writing wrfout_d02_2024-08-25_06:00:00 for domain        2:    1.30517 elapsed seconds
Timing for main: time 2024-08-25_06:00:00 on domain   1:    4.59670 elapsed seconds
Timing for Writing wrfout_d01_2024-08-25_06:00:00 for domain        1:    0.66982 elapsed seconds
d01 2024-08-25_06:00:00 wrf: SUCCESS COMPLETE WRF

rsl.error.0001 result:
 mediation_integrate.G        1243  grid%id            2  grid%oid            2
 mediation_integrate.G        1242 DATASET=HISTORY
 mediation_integrate.G        1243  grid%id            1  grid%oid            2
 mediation_integrate.G        1242 DATASET=HISTORY
 mediation_integrate.G        1243  grid%id            2  grid%oid            2
 mediation_integrate.G        1242 DATASET=HISTORY
 mediation_integrate.G        1243  grid%id            2  grid%oid            2
 mediation_integrate.G        1242 DATASET=HISTORY
 mediation_integrate.G        1243  grid%id            1  grid%oid            2
d01 2024-08-25_06:00:00 wrf: SUCCESS COMPLETE WRF

rsl.out.0001 result:
WRF TILE   1 IS     38 IE     74 JS      1 JE     30
WRF NUMBER OF TILES =   1
d01 2024-08-25_00:00:00  ----------------------------------------
d01 2024-08-25_00:00:00  W-DAMPING  BEGINS AT W-COURANT NUMBER =    1.00000000
d01 2024-08-25_00:00:00  ----------------------------------------
 Tile Strategy is not specified. Assuming 1D-Y
WRF TILE   1 IS     57 IE    112 JS      1 JE     48
WRF NUMBER OF TILES =   1
d01 2024-08-25_03:00:00  Input data is acceptable to use:
d01 2024-08-25_06:00:00 wrf: SUCCESS COMPLETE WRF

rsl.error.0002 result:
 mediation_integrate.G        1243  grid%id            2  grid%oid            2
 mediation_integrate.G        1242 DATASET=HISTORY
 mediation_integrate.G        1243  grid%id            1  grid%oid            2
 mediation_integrate.G        1242 DATASET=HISTORY
 mediation_integrate.G        1243  grid%id            2  grid%oid            2
 mediation_integrate.G        1242 DATASET=HISTORY
 mediation_integrate.G        1243  grid%id            2  grid%oid            2
 mediation_integrate.G        1242 DATASET=HISTORY
 mediation_integrate.G        1243  grid%id            1  grid%oid            2
d01 2024-08-25_06:00:00 wrf: SUCCESS COMPLETE WRF

rsl.out.0002 result:
WRF TILE   1 IS      1 IE     37 JS     31 JE     61
WRF NUMBER OF TILES =   1
d01 2024-08-25_00:00:00  ----------------------------------------
d01 2024-08-25_00:00:00  W-DAMPING  BEGINS AT W-COURANT NUMBER =    1.00000000
d01 2024-08-25_00:00:00  ----------------------------------------
 Tile Strategy is not specified. Assuming 1D-Y
WRF TILE   1 IS      1 IE     56 JS     49 JE     97
WRF NUMBER OF TILES =   1
d01 2024-08-25_03:00:00  Input data is acceptable to use:
d01 2024-08-25_06:00:00 wrf: SUCCESS COMPLETE WRF

rsl.error.0003 result:
 mediation_integrate.G        1243  grid%id            2  grid%oid            2
 mediation_integrate.G        1242 DATASET=HISTORY
 mediation_integrate.G        1243  grid%id            1  grid%oid            2
 mediation_integrate.G        1242 DATASET=HISTORY
 mediation_integrate.G        1243  grid%id            2  grid%oid            2
 mediation_integrate.G        1242 DATASET=HISTORY
 mediation_integrate.G        1243  grid%id            2  grid%oid            2
 mediation_integrate.G        1242 DATASET=HISTORY
 mediation_integrate.G        1243  grid%id            1  grid%oid            2
d01 2024-08-25_06:00:00 wrf: SUCCESS COMPLETE WRF

rsl.out.0003 result:
WRF TILE   1 IS     38 IE     74 JS     31 JE     61
WRF NUMBER OF TILES =   1
d01 2024-08-25_00:00:00  ----------------------------------------
d01 2024-08-25_00:00:00  W-DAMPING  BEGINS AT W-COURANT NUMBER =    1.00000000
d01 2024-08-25_00:00:00  ----------------------------------------
 Tile Strategy is not specified. Assuming 1D-Y
WRF TILE   1 IS     57 IE    112 JS     49 JE     97
WRF NUMBER OF TILES =   1
d01 2024-08-25_03:00:00  Input data is acceptable to use:
d01 2024-08-25_06:00:00 wrf: SUCCESS COMPLETE WRF

Present wrfout files:
 6508 -rw-rw-r-- 1 oom oom  6663034 set  9 10:17 wrfout_d01_2024-08-25_00:00:00
 7688 -rw-rw-r-- 1 oom oom  7870119 set  9 10:20 wrfout_d01_2024-08-25_01:00:00
 7772 -rw-rw-r-- 1 oom oom  7956823 set  9 10:22 wrfout_d01_2024-08-25_02:00:00
 7796 -rw-rw-r-- 1 oom oom  7979627 set  9 10:25 wrfout_d01_2024-08-25_03:00:00
 7788 -rw-rw-r-- 1 oom oom  7972793 set  9 10:27 wrfout_d01_2024-08-25_04:00:00
 7776 -rw-rw-r-- 1 oom oom  7958606 set  9 10:29 wrfout_d01_2024-08-25_05:00:00
 7772 -rw-rw-r-- 1 oom oom  7957747 set  9 10:32 wrfout_d01_2024-08-25_06:00:00
12576 -rw-rw-r-- 1 oom oom 12874330 set  9 10:17 wrfout_d02_2024-08-25_00:00:00
15420 -rw-rw-r-- 1 oom oom 15788135 set  9 10:20 wrfout_d02_2024-08-25_01:00:00
15760 -rw-rw-r-- 1 oom oom 16135353 set  9 10:22 wrfout_d02_2024-08-25_02:00:00
15844 -rw-rw-r-- 1 oom oom 16223178 set  9 10:25 wrfout_d02_2024-08-25_03:00:00
15860 -rw-rw-r-- 1 oom oom 16238196 set  9 10:27 wrfout_d02_2024-08-25_04:00:00
15860 -rw-rw-r-- 1 oom oom 16240029 set  9 10:29 wrfout_d02_2024-08-25_05:00:00
15784 -rw-rw-r-- 1 oom oom 16161613 set  9 10:32 wrfout_d02_2024-08-25_06:00:00

WRF with 4 CPU(s) finished
